data_job_02299
_audit_creation_date              2018-12-19
_audit_creation_method            'Materials Studio'
_symmetry_space_group_name_H-M    'P1'
_symmetry_Int_Tables_number       1
_symmetry_cell_setting            triclinic
loop_
_symmetry_equiv_pos_as_xyz
  x,y,z
_cell_length_a                    44.2200
_cell_length_b                    12.7757
_cell_length_c                    26.5762
_cell_angle_alpha                 90.0000
_cell_angle_beta                  90.0000
_cell_angle_gamma                 90.0000
loop_
_atom_site_label
_atom_site_type_symbol
_atom_site_fract_x
_atom_site_fract_y
_atom_site_fract_z
_atom_site_U_iso_or_equiv
_atom_site_adp_type
_atom_site_occupancy
C1     C     0.15194   0.19291   0.15102   0.00000  Uiso   1.00
C2     C     0.16131   0.30772   0.14931   0.00000  Uiso   1.00
C3     C     0.16606   0.37170   0.19076   0.00000  Uiso   1.00
C4     C     0.17452   0.47447   0.18128   0.00000  Uiso   1.00
C5     C     0.18851   0.64709   0.18611   0.00000  Uiso   1.00
C6     C     0.12300   0.18493   0.12004   0.00000  Uiso   1.00
C7     C     0.09555   0.14564   0.13689   0.00000  Uiso   1.00
C8     C     0.07177   0.14503   0.10276   0.00000  Uiso   1.00
C9     C     0.02629   0.12693   0.06214   0.00000  Uiso   1.00
C10    C     0.17602   0.13319   0.12165   0.00000  Uiso   1.00
C11    C     0.19314   0.05037   0.13984   0.00000  Uiso   1.00
C12    C     0.21399   0.00618   0.10707   0.00000  Uiso   1.00
C13    C     0.25083   0.90774   0.06895   0.00000  Uiso   1.00
C14    C     0.15853   0.26165   0.06046   0.00000  Uiso   1.00
C15    C     0.16489   0.34506   0.10012   0.00000  Uiso   1.00
C16    C     0.17335   0.44776   0.09058   0.00000  Uiso   1.00
C17    C     0.17811   0.51188   0.13201   0.00000  Uiso   1.00
C18    C     0.12658   0.22227   0.07086   0.00000  Uiso   1.00
C19    C     0.10284   0.22170   0.03670   0.00000  Uiso   1.00
C20    C     0.07536   0.18244   0.05349   0.00000  Uiso   1.00
C21    C     0.17960   0.17053   0.07246   0.00000  Uiso   1.00
C22    C     0.20043   0.12644   0.03966   0.00000  Uiso   1.00
C23    C     0.21758   0.04359   0.05780   0.00000  Uiso   1.00
H24    H     0.14915   0.16383   0.18931   0.00000  Uiso   1.00
H25    H     0.16328   0.34278   0.22882   0.00000  Uiso   1.00
H26    H     0.09278   0.11674   0.17495   0.00000  Uiso   1.00
H27    H     0.19036   0.02150   0.17790   0.00000  Uiso   1.00
H28    H     0.18052   0.55765   0.25093   0.00000  Uiso   1.00
H29    H     0.03187   0.08101   0.13734   0.00000  Uiso   1.00
H30    H     0.23763   0.88016   0.14357   0.00000  Uiso   1.00
H31    H     0.16132   0.29072   0.02217   0.00000  Uiso   1.00
H32    H     0.17612   0.47664   0.05251   0.00000  Uiso   1.00
H33    H     0.10562   0.25060   0.99864   0.00000  Uiso   1.00
H34    H     0.20320   0.15536   0.00160   0.00000  Uiso   1.00
H35    H     0.19094   0.66629   0.10783   0.00000  Uiso   1.00
H36    H     0.04229   0.18965   0.99424   0.00000  Uiso   1.00
H37    H     0.24805   0.98881   0.00048   0.00000  Uiso   1.00
O38    O     0.19524   0.73199   0.20236   0.00000  Uiso   1.00
O39    O     0.00022   0.10664   0.05333   0.00000  Uiso   1.00
O40    O     0.27017   0.84314   0.06151   0.00000  Uiso   1.00
N41    N     0.18095   0.55770   0.21309   0.00000  Uiso   1.00
N42    N     0.04197   0.11209   0.10689   0.00000  Uiso   1.00
N43    N     0.23433   0.92429   0.11272   0.00000  Uiso   1.00
N44    N     0.18655   0.61616   0.13609   0.00000  Uiso   1.00
N45    N     0.04757   0.17055   0.02989   0.00000  Uiso   1.00
N46    N     0.23994   0.98276   0.03572   0.00000  Uiso   1.00
C47    C     0.12929   0.11148   0.35022   0.00000  Uiso   1.00
C48    C     0.14069   0.99929   0.35515   0.00000  Uiso   1.00
C49    C     0.14810   0.93328   0.31555   0.00000  Uiso   1.00
C50    C     0.15810   0.83352   0.32790   0.00000  Uiso   1.00
C51    C     0.17540   0.66425   0.32793   0.00000  Uiso   1.00
C52    C     0.09921   0.11526   0.37820   0.00000  Uiso   1.00
C53    C     0.07174   0.14677   0.35798   0.00000  Uiso   1.00
C54    C     0.04681   0.14464   0.38974   0.00000  Uiso   1.00
C55    C     0.99972   0.15547   0.42557   0.00000  Uiso   1.00
C56    C     0.15112   0.17891   0.38059   0.00000  Uiso   1.00
C57    C     0.16729   0.26396   0.36239   0.00000  Uiso   1.00
C58    C     0.18607   0.31544   0.39616   0.00000  Uiso   1.00
C59    C     0.21958   0.42511   0.43569   0.00000  Uiso   1.00
C60    C     0.13388   0.05170   0.44256   0.00000  Uiso   1.00
C61    C     0.14318   0.96682   0.40531   0.00000  Uiso   1.00
C62    C     0.15317   0.86714   0.41772   0.00000  Uiso   1.00
C63    C     0.16059   0.80099   0.37815   0.00000  Uiso   1.00
C64    C     0.10170   0.08279   0.42836   0.00000  Uiso   1.00
C65    C     0.07681   0.08062   0.46015   0.00000  Uiso   1.00
C66    C     0.04931   0.11211   0.43999   0.00000  Uiso   1.00
C67    C     0.15361   0.14644   0.43075   0.00000  Uiso   1.00
C68    C     0.17237   0.19781   0.46456   0.00000  Uiso   1.00
C69    C     0.18857   0.28291   0.44641   0.00000  Uiso   1.00
H70    H     0.12735   0.13676   0.31117   0.00000  Uiso   1.00
H71    H     0.14617   0.95844   0.27674   0.00000  Uiso   1.00
H72    H     0.06982   0.17190   0.31917   0.00000  Uiso   1.00
H73    H     0.16536   0.28907   0.32357   0.00000  Uiso   1.00
H74    H     0.16811   0.74640   0.26069   0.00000  Uiso   1.00
H75    H     0.00713   0.19652   0.35016   0.00000  Uiso   1.00
H76    H     0.20860   0.44361   0.35944   0.00000  Uiso   1.00
H77    H     0.13581   0.02642   0.48162   0.00000  Uiso   1.00
H78    H     0.15509   0.84203   0.45654   0.00000  Uiso   1.00
H79    H     0.07874   0.05549   0.49897   0.00000  Uiso   1.00
H80    H     0.17429   0.17266   0.50337   0.00000  Uiso   1.00
H81    H     0.17536   0.65192   0.40663   0.00000  Uiso   1.00
H82    H     0.01437   0.10205   0.49609   0.00000  Uiso   1.00
H83    H     0.21584   0.34912   0.50537   0.00000  Uiso   1.00
O84    O     0.18425   0.57984   0.31409   0.00000  Uiso   1.00
O85    O     0.97305   0.17041   0.43146   0.00000  Uiso   1.00
O86    O     0.23738   0.49457   0.44364   0.00000  Uiso   1.00
N87    N     0.16718   0.74947   0.29848   0.00000  Uiso   1.00
N88    N     0.01667   0.17030   0.38212   0.00000  Uiso   1.00
N89    N     0.20502   0.40132   0.39080   0.00000  Uiso   1.00
N90    N     0.17108   0.69863   0.37700   0.00000  Uiso   1.00
N91    N     0.02056   0.11946   0.46065   0.00000  Uiso   1.00
N92    N     0.20892   0.35048   0.46933   0.00000  Uiso   1.00
C93    C     0.65194   0.69291   0.15102   0.00000  Uiso   1.00
C94    C     0.66131   0.80772   0.14931   0.00000  Uiso   1.00
C95    C     0.66606   0.87170   0.19076   0.00000  Uiso   1.00
C96    C     0.67452   0.97447   0.18128   0.00000  Uiso   1.00
C97    C     0.68851   0.14709   0.18611   0.00000  Uiso   1.00
C98    C     0.62300   0.68493   0.12004   0.00000  Uiso   1.00
C99    C     0.59555   0.64564   0.13689   0.00000  Uiso   1.00
C100   C     0.57177   0.64503   0.10276   0.00000  Uiso   1.00
C101   C     0.52629   0.62693   0.06214   0.00000  Uiso   1.00
C102   C     0.67602   0.63319   0.12165   0.00000  Uiso   1.00
C103   C     0.69314   0.55037   0.13984   0.00000  Uiso   1.00
C104   C     0.71399   0.50618   0.10707   0.00000  Uiso   1.00
C105   C     0.75083   0.40774   0.06895   0.00000  Uiso   1.00
C106   C     0.65853   0.76165   0.06046   0.00000  Uiso   1.00
C107   C     0.66489   0.84506   0.10012   0.00000  Uiso   1.00
C108   C     0.67335   0.94776   0.09058   0.00000  Uiso   1.00
C109   C     0.67811   0.01188   0.13201   0.00000  Uiso   1.00
C110   C     0.62658   0.72227   0.07086   0.00000  Uiso   1.00
C111   C     0.60284   0.72170   0.03670   0.00000  Uiso   1.00
C112   C     0.57536   0.68244   0.05349   0.00000  Uiso   1.00
C113   C     0.67960   0.67053   0.07246   0.00000  Uiso   1.00
C114   C     0.70043   0.62644   0.03966   0.00000  Uiso   1.00
C115   C     0.71758   0.54359   0.05780   0.00000  Uiso   1.00
H116   H     0.64915   0.66383   0.18931   0.00000  Uiso   1.00
H117   H     0.66328   0.84278   0.22882   0.00000  Uiso   1.00
H118   H     0.59278   0.61674   0.17495   0.00000  Uiso   1.00
H119   H     0.69036   0.52150   0.17790   0.00000  Uiso   1.00
H120   H     0.68052   0.05765   0.25093   0.00000  Uiso   1.00
H121   H     0.53187   0.58101   0.13734   0.00000  Uiso   1.00
H122   H     0.73763   0.38016   0.14357   0.00000  Uiso   1.00
H123   H     0.66132   0.79072   0.02217   0.00000  Uiso   1.00
H124   H     0.67612   0.97664   0.05251   0.00000  Uiso   1.00
H125   H     0.60562   0.75060   0.99864   0.00000  Uiso   1.00
H126   H     0.70320   0.65536   0.00160   0.00000  Uiso   1.00
H127   H     0.69094   0.16629   0.10783   0.00000  Uiso   1.00
H128   H     0.54229   0.68965   0.99424   0.00000  Uiso   1.00
H129   H     0.74805   0.48881   0.00048   0.00000  Uiso   1.00
O130   O     0.69524   0.23199   0.20236   0.00000  Uiso   1.00
O131   O     0.50022   0.60664   0.05333   0.00000  Uiso   1.00
O132   O     0.77017   0.34314   0.06151   0.00000  Uiso   1.00
N133   N     0.68095   0.05770   0.21309   0.00000  Uiso   1.00
N134   N     0.54197   0.61209   0.10689   0.00000  Uiso   1.00
N135   N     0.73433   0.42429   0.11272   0.00000  Uiso   1.00
N136   N     0.68655   0.11616   0.13609   0.00000  Uiso   1.00
N137   N     0.54757   0.67055   0.02989   0.00000  Uiso   1.00
N138   N     0.73994   0.48276   0.03572   0.00000  Uiso   1.00
C139   C     0.62929   0.61148   0.35022   0.00000  Uiso   1.00
C140   C     0.64069   0.49929   0.35515   0.00000  Uiso   1.00
C141   C     0.64810   0.43328   0.31555   0.00000  Uiso   1.00
C142   C     0.65810   0.33352   0.32790   0.00000  Uiso   1.00
C143   C     0.67540   0.16425   0.32793   0.00000  Uiso   1.00
C144   C     0.59921   0.61526   0.37820   0.00000  Uiso   1.00
C145   C     0.57174   0.64677   0.35798   0.00000  Uiso   1.00
C146   C     0.54681   0.64464   0.38974   0.00000  Uiso   1.00
C147   C     0.49972   0.65547   0.42557   0.00000  Uiso   1.00
C148   C     0.65112   0.67891   0.38059   0.00000  Uiso   1.00
C149   C     0.66729   0.76396   0.36239   0.00000  Uiso   1.00
C150   C     0.68607   0.81544   0.39616   0.00000  Uiso   1.00
C151   C     0.71958   0.92511   0.43569   0.00000  Uiso   1.00
C152   C     0.63388   0.55170   0.44256   0.00000  Uiso   1.00
C153   C     0.64318   0.46682   0.40531   0.00000  Uiso   1.00
C154   C     0.65317   0.36714   0.41772   0.00000  Uiso   1.00
C155   C     0.66059   0.30099   0.37815   0.00000  Uiso   1.00
C156   C     0.60170   0.58279   0.42836   0.00000  Uiso   1.00
C157   C     0.57681   0.58062   0.46015   0.00000  Uiso   1.00
C158   C     0.54931   0.61211   0.43999   0.00000  Uiso   1.00
C159   C     0.65361   0.64644   0.43075   0.00000  Uiso   1.00
C160   C     0.67237   0.69781   0.46456   0.00000  Uiso   1.00
C161   C     0.68857   0.78291   0.44641   0.00000  Uiso   1.00
H162   H     0.62735   0.63676   0.31117   0.00000  Uiso   1.00
H163   H     0.64617   0.45844   0.27674   0.00000  Uiso   1.00
H164   H     0.56982   0.67190   0.31917   0.00000  Uiso   1.00
H165   H     0.66536   0.78907   0.32357   0.00000  Uiso   1.00
H166   H     0.66811   0.24640   0.26069   0.00000  Uiso   1.00
H167   H     0.50713   0.69652   0.35016   0.00000  Uiso   1.00
H168   H     0.70860   0.94361   0.35944   0.00000  Uiso   1.00
H169   H     0.63581   0.52642   0.48162   0.00000  Uiso   1.00
H170   H     0.65509   0.34203   0.45654   0.00000  Uiso   1.00
H171   H     0.57874   0.55549   0.49897   0.00000  Uiso   1.00
H172   H     0.67429   0.67266   0.50337   0.00000  Uiso   1.00
H173   H     0.67536   0.15192   0.40663   0.00000  Uiso   1.00
H174   H     0.51437   0.60205   0.49609   0.00000  Uiso   1.00
H175   H     0.71584   0.84912   0.50537   0.00000  Uiso   1.00
O176   O     0.68425   0.07984   0.31409   0.00000  Uiso   1.00
O177   O     0.47305   0.67041   0.43146   0.00000  Uiso   1.00
O178   O     0.73738   0.99457   0.44364   0.00000  Uiso   1.00
N179   N     0.66718   0.24947   0.29848   0.00000  Uiso   1.00
N180   N     0.51667   0.67030   0.38212   0.00000  Uiso   1.00
N181   N     0.70502   0.90132   0.39080   0.00000  Uiso   1.00
N182   N     0.67108   0.19863   0.37700   0.00000  Uiso   1.00
N183   N     0.52056   0.61946   0.46065   0.00000  Uiso   1.00
N184   N     0.70892   0.85048   0.46933   0.00000  Uiso   1.00
C185   C     0.84806   0.80709   0.15102   0.00000  Uiso   1.00
C186   C     0.83869   0.69228   0.14931   0.00000  Uiso   1.00
C187   C     0.83394   0.62830   0.19076   0.00000  Uiso   1.00
C188   C     0.82548   0.52553   0.18128   0.00000  Uiso   1.00
C189   C     0.81149   0.35291   0.18611   0.00000  Uiso   1.00
C190   C     0.87700   0.81507   0.12004   0.00000  Uiso   1.00
C191   C     0.90445   0.85436   0.13689   0.00000  Uiso   1.00
C192   C     0.92823   0.85497   0.10276   0.00000  Uiso   1.00
C193   C     0.97371   0.87307   0.06214   0.00000  Uiso   1.00
C194   C     0.82398   0.86681   0.12165   0.00000  Uiso   1.00
C195   C     0.80686   0.94963   0.13984   0.00000  Uiso   1.00
C196   C     0.78601   0.99382   0.10707   0.00000  Uiso   1.00
C197   C     0.74917   0.09226   0.06895   0.00000  Uiso   1.00
C198   C     0.84147   0.73835   0.06046   0.00000  Uiso   1.00
C199   C     0.83511   0.65494   0.10012   0.00000  Uiso   1.00
C200   C     0.82665   0.55224   0.09058   0.00000  Uiso   1.00
C201   C     0.82189   0.48812   0.13201   0.00000  Uiso   1.00
C202   C     0.87342   0.77773   0.07086   0.00000  Uiso   1.00
C203   C     0.89716   0.77830   0.03670   0.00000  Uiso   1.00
C204   C     0.92464   0.81756   0.05349   0.00000  Uiso   1.00
C205   C     0.82040   0.82947   0.07246   0.00000  Uiso   1.00
C206   C     0.79957   0.87356   0.03966   0.00000  Uiso   1.00
C207   C     0.78242   0.95641   0.05780   0.00000  Uiso   1.00
H208   H     0.85085   0.83617   0.18931   0.00000  Uiso   1.00
H209   H     0.83672   0.65722   0.22882   0.00000  Uiso   1.00
H210   H     0.90722   0.88326   0.17495   0.00000  Uiso   1.00
H211   H     0.80964   0.97850   0.17790   0.00000  Uiso   1.00
H212   H     0.81948   0.44235   0.25093   0.00000  Uiso   1.00
H213   H     0.96813   0.91899   0.13734   0.00000  Uiso   1.00
H214   H     0.76237   0.11984   0.14357   0.00000  Uiso   1.00
H215   H     0.83868   0.70928   0.02217   0.00000  Uiso   1.00
H216   H     0.82388   0.52336   0.05251   0.00000  Uiso   1.00
H217   H     0.89438   0.74940   0.99864   0.00000  Uiso   1.00
H218   H     0.79680   0.84464   0.00160   0.00000  Uiso   1.00
H219   H     0.80906   0.33371   0.10783   0.00000  Uiso   1.00
H220   H     0.95771   0.81035   0.99424   0.00000  Uiso   1.00
H221   H     0.75195   0.01119   0.00048   0.00000  Uiso   1.00
O222   O     0.80476   0.26801   0.20236   0.00000  Uiso   1.00
O223   O     0.99978   0.89336   0.05333   0.00000  Uiso   1.00
O224   O     0.72983   0.15686   0.06151   0.00000  Uiso   1.00
N225   N     0.81905   0.44230   0.21309   0.00000  Uiso   1.00
N226   N     0.95803   0.88791   0.10689   0.00000  Uiso   1.00
N227   N     0.76567   0.07571   0.11272   0.00000  Uiso   1.00
N228   N     0.81345   0.38384   0.13609   0.00000  Uiso   1.00
N229   N     0.95243   0.82945   0.02989   0.00000  Uiso   1.00
N230   N     0.76006   0.01724   0.03572   0.00000  Uiso   1.00
C231   C     0.87071   0.88852   0.35022   0.00000  Uiso   1.00
C232   C     0.85931   0.00071   0.35515   0.00000  Uiso   1.00
C233   C     0.85190   0.06672   0.31555   0.00000  Uiso   1.00
C234   C     0.84190   0.16648   0.32790   0.00000  Uiso   1.00
C235   C     0.82460   0.33575   0.32793   0.00000  Uiso   1.00
C236   C     0.90079   0.88474   0.37820   0.00000  Uiso   1.00
C237   C     0.92826   0.85323   0.35798   0.00000  Uiso   1.00
C238   C     0.95319   0.85536   0.38974   0.00000  Uiso   1.00
C239   C     0.00028   0.84453   0.42557   0.00000  Uiso   1.00
C240   C     0.84888   0.82109   0.38059   0.00000  Uiso   1.00
C241   C     0.83271   0.73604   0.36239   0.00000  Uiso   1.00
C242   C     0.81393   0.68456   0.39616   0.00000  Uiso   1.00
C243   C     0.78042   0.57489   0.43569   0.00000  Uiso   1.00
C244   C     0.86612   0.94830   0.44256   0.00000  Uiso   1.00
C245   C     0.85682   0.03318   0.40531   0.00000  Uiso   1.00
C246   C     0.84683   0.13286   0.41772   0.00000  Uiso   1.00
C247   C     0.83941   0.19901   0.37815   0.00000  Uiso   1.00
C248   C     0.89831   0.91721   0.42836   0.00000  Uiso   1.00
C249   C     0.92319   0.91938   0.46015   0.00000  Uiso   1.00
C250   C     0.95069   0.88789   0.43999   0.00000  Uiso   1.00
C251   C     0.84639   0.85356   0.43075   0.00000  Uiso   1.00
C252   C     0.82763   0.80219   0.46456   0.00000  Uiso   1.00
C253   C     0.81143   0.71709   0.44641   0.00000  Uiso   1.00
H254   H     0.87265   0.86324   0.31117   0.00000  Uiso   1.00
H255   H     0.85383   0.04156   0.27674   0.00000  Uiso   1.00
H256   H     0.93018   0.82810   0.31917   0.00000  Uiso   1.00
H257   H     0.83464   0.71093   0.32357   0.00000  Uiso   1.00
H258   H     0.83189   0.25360   0.26069   0.00000  Uiso   1.00
H259   H     0.99287   0.80348   0.35016   0.00000  Uiso   1.00
H260   H     0.79140   0.55639   0.35944   0.00000  Uiso   1.00
H261   H     0.86419   0.97358   0.48162   0.00000  Uiso   1.00
H262   H     0.84491   0.15797   0.45654   0.00000  Uiso   1.00
H263   H     0.92126   0.94451   0.49897   0.00000  Uiso   1.00
H264   H     0.82571   0.82734   0.50337   0.00000  Uiso   1.00
H265   H     0.82464   0.34808   0.40663   0.00000  Uiso   1.00
H266   H     0.98563   0.89795   0.49609   0.00000  Uiso   1.00
H267   H     0.78416   0.65088   0.50537   0.00000  Uiso   1.00
O268   O     0.81575   0.42016   0.31409   0.00000  Uiso   1.00
O269   O     0.02695   0.82959   0.43146   0.00000  Uiso   1.00
O270   O     0.76262   0.50543   0.44364   0.00000  Uiso   1.00
N271   N     0.83282   0.25053   0.29848   0.00000  Uiso   1.00
N272   N     0.98333   0.82970   0.38212   0.00000  Uiso   1.00
N273   N     0.79498   0.59868   0.39080   0.00000  Uiso   1.00
N274   N     0.82892   0.30137   0.37700   0.00000  Uiso   1.00
N275   N     0.97944   0.88054   0.46065   0.00000  Uiso   1.00
N276   N     0.79108   0.64952   0.46933   0.00000  Uiso   1.00
C277   C     0.34806   0.30709   0.15102   0.00000  Uiso   1.00
C278   C     0.33869   0.19228   0.14931   0.00000  Uiso   1.00
C279   C     0.33394   0.12830   0.19076   0.00000  Uiso   1.00
C280   C     0.32548   0.02553   0.18128   0.00000  Uiso   1.00
C281   C     0.31149   0.85291   0.18611   0.00000  Uiso   1.00
C282   C     0.37700   0.31507   0.12004   0.00000  Uiso   1.00
C283   C     0.40445   0.35436   0.13689   0.00000  Uiso   1.00
C284   C     0.42823   0.35497   0.10276   0.00000  Uiso   1.00
C285   C     0.47371   0.37307   0.06214   0.00000  Uiso   1.00
C286   C     0.32398   0.36681   0.12165   0.00000  Uiso   1.00
C287   C     0.30686   0.44963   0.13984   0.00000  Uiso   1.00
C288   C     0.28601   0.49382   0.10707   0.00000  Uiso   1.00
C289   C     0.24917   0.59226   0.06895   0.00000  Uiso   1.00
C290   C     0.34147   0.23835   0.06046   0.00000  Uiso   1.00
C291   C     0.33511   0.15494   0.10012   0.00000  Uiso   1.00
C292   C     0.32665   0.05224   0.09058   0.00000  Uiso   1.00
C293   C     0.32189   0.98812   0.13201   0.00000  Uiso   1.00
C294   C     0.37342   0.27773   0.07086   0.00000  Uiso   1.00
C295   C     0.39716   0.27830   0.03670   0.00000  Uiso   1.00
C296   C     0.42464   0.31756   0.05349   0.00000  Uiso   1.00
C297   C     0.32040   0.32947   0.07246   0.00000  Uiso   1.00
C298   C     0.29957   0.37356   0.03966   0.00000  Uiso   1.00
C299   C     0.28242   0.45641   0.05780   0.00000  Uiso   1.00
H300   H     0.35085   0.33617   0.18931   0.00000  Uiso   1.00
H301   H     0.33672   0.15722   0.22882   0.00000  Uiso   1.00
H302   H     0.40722   0.38326   0.17495   0.00000  Uiso   1.00
H303   H     0.30964   0.47850   0.17790   0.00000  Uiso   1.00
H304   H     0.31948   0.94235   0.25093   0.00000  Uiso   1.00
H305   H     0.46813   0.41899   0.13734   0.00000  Uiso   1.00
H306   H     0.26237   0.61984   0.14357   0.00000  Uiso   1.00
H307   H     0.33868   0.20928   0.02217   0.00000  Uiso   1.00
H308   H     0.32388   0.02336   0.05251   0.00000  Uiso   1.00
H309   H     0.39438   0.24940   0.99864   0.00000  Uiso   1.00
H310   H     0.29680   0.34464   0.00160   0.00000  Uiso   1.00
H311   H     0.30906   0.83371   0.10783   0.00000  Uiso   1.00
H312   H     0.45771   0.31035   0.99424   0.00000  Uiso   1.00
H313   H     0.25195   0.51119   0.00048   0.00000  Uiso   1.00
O314   O     0.30476   0.76801   0.20236   0.00000  Uiso   1.00
O315   O     0.49978   0.39336   0.05333   0.00000  Uiso   1.00
O316   O     0.22983   0.65686   0.06151   0.00000  Uiso   1.00
N317   N     0.31905   0.94230   0.21309   0.00000  Uiso   1.00
N318   N     0.45803   0.38791   0.10689   0.00000  Uiso   1.00
N319   N     0.26567   0.57571   0.11272   0.00000  Uiso   1.00
N320   N     0.31345   0.88384   0.13609   0.00000  Uiso   1.00
N321   N     0.45243   0.32945   0.02989   0.00000  Uiso   1.00
N322   N     0.26006   0.51724   0.03572   0.00000  Uiso   1.00
C323   C     0.37071   0.38852   0.35022   0.00000  Uiso   1.00
C324   C     0.35931   0.50071   0.35515   0.00000  Uiso   1.00
C325   C     0.35190   0.56672   0.31555   0.00000  Uiso   1.00
C326   C     0.34190   0.66648   0.32790   0.00000  Uiso   1.00
C327   C     0.32460   0.83575   0.32793   0.00000  Uiso   1.00
C328   C     0.40079   0.38474   0.37820   0.00000  Uiso   1.00
C329   C     0.42826   0.35323   0.35798   0.00000  Uiso   1.00
C330   C     0.45319   0.35536   0.38974   0.00000  Uiso   1.00
C331   C     0.50028   0.34453   0.42557   0.00000  Uiso   1.00
C332   C     0.34888   0.32109   0.38059   0.00000  Uiso   1.00
C333   C     0.33271   0.23604   0.36239   0.00000  Uiso   1.00
C334   C     0.31393   0.18456   0.39616   0.00000  Uiso   1.00
C335   C     0.28042   0.07489   0.43569   0.00000  Uiso   1.00
C336   C     0.36612   0.44830   0.44256   0.00000  Uiso   1.00
C337   C     0.35682   0.53318   0.40531   0.00000  Uiso   1.00
C338   C     0.34683   0.63286   0.41772   0.00000  Uiso   1.00
C339   C     0.33941   0.69901   0.37815   0.00000  Uiso   1.00
C340   C     0.39830   0.41721   0.42836   0.00000  Uiso   1.00
C341   C     0.42319   0.41938   0.46015   0.00000  Uiso   1.00
C342   C     0.45069   0.38789   0.43999   0.00000  Uiso   1.00
C343   C     0.34639   0.35356   0.43075   0.00000  Uiso   1.00
C344   C     0.32763   0.30219   0.46456   0.00000  Uiso   1.00
C345   C     0.31143   0.21709   0.44641   0.00000  Uiso   1.00
H346   H     0.37265   0.36324   0.31117   0.00000  Uiso   1.00
H347   H     0.35383   0.54156   0.27674   0.00000  Uiso   1.00
H348   H     0.43018   0.32810   0.31917   0.00000  Uiso   1.00
H349   H     0.33464   0.21093   0.32357   0.00000  Uiso   1.00
H350   H     0.33189   0.75360   0.26069   0.00000  Uiso   1.00
H351   H     0.49287   0.30348   0.35016   0.00000  Uiso   1.00
H352   H     0.29140   0.05639   0.35944   0.00000  Uiso   1.00
H353   H     0.36419   0.47358   0.48162   0.00000  Uiso   1.00
H354   H     0.34491   0.65797   0.45654   0.00000  Uiso   1.00
H355   H     0.42126   0.44451   0.49897   0.00000  Uiso   1.00
H356   H     0.32571   0.32734   0.50337   0.00000  Uiso   1.00
H357   H     0.32464   0.84808   0.40663   0.00000  Uiso   1.00
H358   H     0.48563   0.39795   0.49609   0.00000  Uiso   1.00
H359   H     0.28416   0.15088   0.50537   0.00000  Uiso   1.00
O360   O     0.31575   0.92016   0.31409   0.00000  Uiso   1.00
O361   O     0.52695   0.32959   0.43146   0.00000  Uiso   1.00
O362   O     0.26262   0.00543   0.44364   0.00000  Uiso   1.00
N363   N     0.33282   0.75053   0.29848   0.00000  Uiso   1.00
N364   N     0.48333   0.32970   0.38212   0.00000  Uiso   1.00
N365   N     0.29498   0.09868   0.39080   0.00000  Uiso   1.00
N366   N     0.32892   0.80137   0.37700   0.00000  Uiso   1.00
N367   N     0.47944   0.38054   0.46065   0.00000  Uiso   1.00
N368   N     0.29108   0.14952   0.46933   0.00000  Uiso   1.00
C369   C     0.15194   0.80709   0.65102   0.00000  Uiso   1.00
C370   C     0.16131   0.69228   0.64931   0.00000  Uiso   1.00
C371   C     0.16606   0.62830   0.69076   0.00000  Uiso   1.00
C372   C     0.17452   0.52553   0.68128   0.00000  Uiso   1.00
C373   C     0.18851   0.35291   0.68611   0.00000  Uiso   1.00
C374   C     0.12300   0.81507   0.62004   0.00000  Uiso   1.00
C375   C     0.09555   0.85436   0.63689   0.00000  Uiso   1.00
C376   C     0.07177   0.85497   0.60276   0.00000  Uiso   1.00
C377   C     0.02629   0.87307   0.56214   0.00000  Uiso   1.00
C378   C     0.17602   0.86681   0.62165   0.00000  Uiso   1.00
C379   C     0.19314   0.94963   0.63984   0.00000  Uiso   1.00
C380   C     0.21399   0.99382   0.60707   0.00000  Uiso   1.00
C381   C     0.25083   0.09226   0.56895   0.00000  Uiso   1.00
C382   C     0.15853   0.73835   0.56046   0.00000  Uiso   1.00
C383   C     0.16489   0.65494   0.60012   0.00000  Uiso   1.00
C384   C     0.17335   0.55224   0.59058   0.00000  Uiso   1.00
C385   C     0.17811   0.48812   0.63201   0.00000  Uiso   1.00
C386   C     0.12658   0.77773   0.57086   0.00000  Uiso   1.00
C387   C     0.10284   0.77830   0.53670   0.00000  Uiso   1.00
C388   C     0.07536   0.81756   0.55349   0.00000  Uiso   1.00
C389   C     0.17960   0.82947   0.57246   0.00000  Uiso   1.00
C390   C     0.20043   0.87356   0.53966   0.00000  Uiso   1.00
C391   C     0.21758   0.95641   0.55780   0.00000  Uiso   1.00
H392   H     0.14915   0.83617   0.68931   0.00000  Uiso   1.00
H393   H     0.16328   0.65722   0.72882   0.00000  Uiso   1.00
H394   H     0.09278   0.88326   0.67495   0.00000  Uiso   1.00
H395   H     0.19036   0.97850   0.67790   0.00000  Uiso   1.00
H396   H     0.18052   0.44235   0.75093   0.00000  Uiso   1.00
H397   H     0.03187   0.91899   0.63734   0.00000  Uiso   1.00
H398   H     0.23763   0.11984   0.64357   0.00000  Uiso   1.00
H399   H     0.16132   0.70928   0.52217   0.00000  Uiso   1.00
H400   H     0.17612   0.52336   0.55251   0.00000  Uiso   1.00
H401   H     0.10562   0.74940   0.49864   0.00000  Uiso   1.00
H402   H     0.20320   0.84464   0.50160   0.00000  Uiso   1.00
H403   H     0.19094   0.33371   0.60783   0.00000  Uiso   1.00
H404   H     0.04229   0.81035   0.49424   0.00000  Uiso   1.00
H405   H     0.24805   0.01119   0.50048   0.00000  Uiso   1.00
O406   O     0.19524   0.26801   0.70236   0.00000  Uiso   1.00
O407   O     0.00022   0.89336   0.55333   0.00000  Uiso   1.00
O408   O     0.27017   0.15686   0.56151   0.00000  Uiso   1.00
N409   N     0.18095   0.44230   0.71309   0.00000  Uiso   1.00
N410   N     0.04197   0.88791   0.60689   0.00000  Uiso   1.00
N411   N     0.23433   0.07571   0.61272   0.00000  Uiso   1.00
N412   N     0.18655   0.38384   0.63609   0.00000  Uiso   1.00
N413   N     0.04757   0.82945   0.52989   0.00000  Uiso   1.00
N414   N     0.23994   0.01724   0.53572   0.00000  Uiso   1.00
C415   C     0.12929   0.88852   0.85022   0.00000  Uiso   1.00
C416   C     0.14069   0.00071   0.85515   0.00000  Uiso   1.00
C417   C     0.14810   0.06672   0.81555   0.00000  Uiso   1.00
C418   C     0.15810   0.16648   0.82790   0.00000  Uiso   1.00
C419   C     0.17540   0.33575   0.82793   0.00000  Uiso   1.00
C420   C     0.09921   0.88474   0.87820   0.00000  Uiso   1.00
C421   C     0.07174   0.85323   0.85798   0.00000  Uiso   1.00
C422   C     0.04681   0.85536   0.88974   0.00000  Uiso   1.00
C423   C     0.99972   0.84453   0.92557   0.00000  Uiso   1.00
C424   C     0.15112   0.82109   0.88059   0.00000  Uiso   1.00
C425   C     0.16729   0.73604   0.86239   0.00000  Uiso   1.00
C426   C     0.18607   0.68456   0.89616   0.00000  Uiso   1.00
C427   C     0.21958   0.57489   0.93569   0.00000  Uiso   1.00
C428   C     0.13388   0.94830   0.94256   0.00000  Uiso   1.00
C429   C     0.14318   0.03318   0.90531   0.00000  Uiso   1.00
C430   C     0.15317   0.13286   0.91772   0.00000  Uiso   1.00
C431   C     0.16059   0.19901   0.87815   0.00000  Uiso   1.00
C432   C     0.10170   0.91721   0.92836   0.00000  Uiso   1.00
C433   C     0.07681   0.91938   0.96015   0.00000  Uiso   1.00
C434   C     0.04931   0.88789   0.93999   0.00000  Uiso   1.00
C435   C     0.15361   0.85356   0.93075   0.00000  Uiso   1.00
C436   C     0.17237   0.80219   0.96456   0.00000  Uiso   1.00
C437   C     0.18857   0.71709   0.94641   0.00000  Uiso   1.00
H438   H     0.12735   0.86324   0.81117   0.00000  Uiso   1.00
H439   H     0.14617   0.04156   0.77674   0.00000  Uiso   1.00
H440   H     0.06982   0.82810   0.81917   0.00000  Uiso   1.00
H441   H     0.16536   0.71093   0.82357   0.00000  Uiso   1.00
H442   H     0.16811   0.25360   0.76069   0.00000  Uiso   1.00
H443   H     0.00713   0.80348   0.85016   0.00000  Uiso   1.00
H444   H     0.20860   0.55639   0.85944   0.00000  Uiso   1.00
H445   H     0.13581   0.97358   0.98162   0.00000  Uiso   1.00
H446   H     0.15509   0.15797   0.95654   0.00000  Uiso   1.00
H447   H     0.07874   0.94451   0.99897   0.00000  Uiso   1.00
H448   H     0.17429   0.82734   0.00337   0.00000  Uiso   1.00
H449   H     0.17536   0.34808   0.90663   0.00000  Uiso   1.00
H450   H     0.01437   0.89795   0.99609   0.00000  Uiso   1.00
H451   H     0.21584   0.65088   0.00537   0.00000  Uiso   1.00
O452   O     0.18425   0.42016   0.81409   0.00000  Uiso   1.00
O453   O     0.97305   0.82959   0.93146   0.00000  Uiso   1.00
O454   O     0.23738   0.50543   0.94364   0.00000  Uiso   1.00
N455   N     0.16718   0.25053   0.79848   0.00000  Uiso   1.00
N456   N     0.01667   0.82970   0.88212   0.00000  Uiso   1.00
N457   N     0.20502   0.59868   0.89080   0.00000  Uiso   1.00
N458   N     0.17108   0.30137   0.87700   0.00000  Uiso   1.00
N459   N     0.02056   0.88054   0.96065   0.00000  Uiso   1.00
N460   N     0.20892   0.64952   0.96933   0.00000  Uiso   1.00
C461   C     0.65194   0.30709   0.65102   0.00000  Uiso   1.00
C462   C     0.66131   0.19228   0.64931   0.00000  Uiso   1.00
C463   C     0.66606   0.12830   0.69076   0.00000  Uiso   1.00
C464   C     0.67452   0.02553   0.68128   0.00000  Uiso   1.00
C465   C     0.68851   0.85291   0.68611   0.00000  Uiso   1.00
C466   C     0.62300   0.31507   0.62004   0.00000  Uiso   1.00
C467   C     0.59555   0.35436   0.63689   0.00000  Uiso   1.00
C468   C     0.57177   0.35497   0.60276   0.00000  Uiso   1.00
C469   C     0.52629   0.37307   0.56214   0.00000  Uiso   1.00
C470   C     0.67602   0.36681   0.62165   0.00000  Uiso   1.00
C471   C     0.69314   0.44963   0.63984   0.00000  Uiso   1.00
C472   C     0.71399   0.49382   0.60707   0.00000  Uiso   1.00
C473   C     0.75083   0.59226   0.56895   0.00000  Uiso   1.00
C474   C     0.65853   0.23835   0.56046   0.00000  Uiso   1.00
C475   C     0.66489   0.15494   0.60012   0.00000  Uiso   1.00
C476   C     0.67335   0.05224   0.59058   0.00000  Uiso   1.00
C477   C     0.67811   0.98812   0.63201   0.00000  Uiso   1.00
C478   C     0.62658   0.27773   0.57086   0.00000  Uiso   1.00
C479   C     0.60284   0.27830   0.53670   0.00000  Uiso   1.00
C480   C     0.57536   0.31756   0.55349   0.00000  Uiso   1.00
C481   C     0.67960   0.32947   0.57246   0.00000  Uiso   1.00
C482   C     0.70043   0.37356   0.53966   0.00000  Uiso   1.00
C483   C     0.71758   0.45641   0.55780   0.00000  Uiso   1.00
H484   H     0.64915   0.33617   0.68931   0.00000  Uiso   1.00
H485   H     0.66328   0.15722   0.72882   0.00000  Uiso   1.00
H486   H     0.59278   0.38326   0.67495   0.00000  Uiso   1.00
H487   H     0.69036   0.47850   0.67790   0.00000  Uiso   1.00
H488   H     0.68052   0.94235   0.75093   0.00000  Uiso   1.00
H489   H     0.53187   0.41899   0.63734   0.00000  Uiso   1.00
H490   H     0.73763   0.61984   0.64357   0.00000  Uiso   1.00
H491   H     0.66132   0.20928   0.52217   0.00000  Uiso   1.00
H492   H     0.67612   0.02336   0.55251   0.00000  Uiso   1.00
H493   H     0.60562   0.24940   0.49864   0.00000  Uiso   1.00
H494   H     0.70320   0.34464   0.50160   0.00000  Uiso   1.00
H495   H     0.69094   0.83371   0.60783   0.00000  Uiso   1.00
H496   H     0.54229   0.31035   0.49424   0.00000  Uiso   1.00
H497   H     0.74805   0.51119   0.50048   0.00000  Uiso   1.00
O498   O     0.69524   0.76801   0.70236   0.00000  Uiso   1.00
O499   O     0.50022   0.39336   0.55333   0.00000  Uiso   1.00
O500   O     0.77017   0.65686   0.56151   0.00000  Uiso   1.00
N501   N     0.68095   0.94230   0.71309   0.00000  Uiso   1.00
N502   N     0.54197   0.38791   0.60689   0.00000  Uiso   1.00
N503   N     0.73433   0.57571   0.61272   0.00000  Uiso   1.00
N504   N     0.68655   0.88384   0.63609   0.00000  Uiso   1.00
N505   N     0.54757   0.32945   0.52989   0.00000  Uiso   1.00
N506   N     0.73994   0.51724   0.53572   0.00000  Uiso   1.00
C507   C     0.62929   0.38852   0.85022   0.00000  Uiso   1.00
C508   C     0.64069   0.50071   0.85515   0.00000  Uiso   1.00
C509   C     0.64810   0.56672   0.81555   0.00000  Uiso   1.00
C510   C     0.65810   0.66648   0.82790   0.00000  Uiso   1.00
C511   C     0.67540   0.83575   0.82793   0.00000  Uiso   1.00
C512   C     0.59921   0.38474   0.87820   0.00000  Uiso   1.00
C513   C     0.57174   0.35323   0.85798   0.00000  Uiso   1.00
C514   C     0.54681   0.35536   0.88974   0.00000  Uiso   1.00
C515   C     0.49972   0.34453   0.92557   0.00000  Uiso   1.00
C516   C     0.65112   0.32109   0.88059   0.00000  Uiso   1.00
C517   C     0.66729   0.23604   0.86239   0.00000  Uiso   1.00
C518   C     0.68607   0.18456   0.89616   0.00000  Uiso   1.00
C519   C     0.71958   0.07489   0.93569   0.00000  Uiso   1.00
C520   C     0.63388   0.44830   0.94256   0.00000  Uiso   1.00
C521   C     0.64318   0.53318   0.90531   0.00000  Uiso   1.00
C522   C     0.65317   0.63286   0.91772   0.00000  Uiso   1.00
C523   C     0.66059   0.69901   0.87815   0.00000  Uiso   1.00
C524   C     0.60170   0.41721   0.92836   0.00000  Uiso   1.00
C525   C     0.57681   0.41938   0.96015   0.00000  Uiso   1.00
C526   C     0.54931   0.38789   0.93999   0.00000  Uiso   1.00
C527   C     0.65361   0.35356   0.93075   0.00000  Uiso   1.00
C528   C     0.67237   0.30219   0.96456   0.00000  Uiso   1.00
C529   C     0.68857   0.21709   0.94641   0.00000  Uiso   1.00
H530   H     0.62735   0.36324   0.81117   0.00000  Uiso   1.00
H531   H     0.64617   0.54156   0.77674   0.00000  Uiso   1.00
H532   H     0.56982   0.32810   0.81917   0.00000  Uiso   1.00
H533   H     0.66536   0.21093   0.82357   0.00000  Uiso   1.00
H534   H     0.66811   0.75360   0.76069   0.00000  Uiso   1.00
H535   H     0.50713   0.30348   0.85016   0.00000  Uiso   1.00
H536   H     0.70860   0.05639   0.85944   0.00000  Uiso   1.00
H537   H     0.63581   0.47358   0.98162   0.00000  Uiso   1.00
H538   H     0.65509   0.65797   0.95654   0.00000  Uiso   1.00
H539   H     0.57874   0.44451   0.99897   0.00000  Uiso   1.00
H540   H     0.67429   0.32734   0.00337   0.00000  Uiso   1.00
H541   H     0.67536   0.84808   0.90663   0.00000  Uiso   1.00
H542   H     0.51437   0.39795   0.99609   0.00000  Uiso   1.00
H543   H     0.71584   0.15088   0.00537   0.00000  Uiso   1.00
O544   O     0.68425   0.92016   0.81409   0.00000  Uiso   1.00
O545   O     0.47305   0.32959   0.93146   0.00000  Uiso   1.00
O546   O     0.73738   0.00543   0.94364   0.00000  Uiso   1.00
N547   N     0.66718   0.75053   0.79848   0.00000  Uiso   1.00
N548   N     0.51667   0.32970   0.88212   0.00000  Uiso   1.00
N549   N     0.70502   0.09868   0.89080   0.00000  Uiso   1.00
N550   N     0.67108   0.80137   0.87700   0.00000  Uiso   1.00
N551   N     0.52056   0.38054   0.96065   0.00000  Uiso   1.00
N552   N     0.70892   0.14952   0.96933   0.00000  Uiso   1.00
C553   C     0.84806   0.19291   0.65102   0.00000  Uiso   1.00
C554   C     0.83869   0.30772   0.64931   0.00000  Uiso   1.00
C555   C     0.83394   0.37170   0.69076   0.00000  Uiso   1.00
C556   C     0.82548   0.47447   0.68128   0.00000  Uiso   1.00
C557   C     0.81149   0.64709   0.68611   0.00000  Uiso   1.00
C558   C     0.87700   0.18493   0.62004   0.00000  Uiso   1.00
C559   C     0.90445   0.14564   0.63689   0.00000  Uiso   1.00
C560   C     0.92823   0.14503   0.60276   0.00000  Uiso   1.00
C561   C     0.97371   0.12693   0.56214   0.00000  Uiso   1.00
C562   C     0.82398   0.13319   0.62165   0.00000  Uiso   1.00
C563   C     0.80686   0.05037   0.63984   0.00000  Uiso   1.00
C564   C     0.78601   0.00618   0.60707   0.00000  Uiso   1.00
C565   C     0.74917   0.90774   0.56895   0.00000  Uiso   1.00
C566   C     0.84147   0.26165   0.56046   0.00000  Uiso   1.00
C567   C     0.83511   0.34506   0.60012   0.00000  Uiso   1.00
C568   C     0.82665   0.44776   0.59058   0.00000  Uiso   1.00
C569   C     0.82189   0.51188   0.63201   0.00000  Uiso   1.00
C570   C     0.87342   0.22227   0.57086   0.00000  Uiso   1.00
C571   C     0.89716   0.22170   0.53670   0.00000  Uiso   1.00
C572   C     0.92464   0.18244   0.55349   0.00000  Uiso   1.00
C573   C     0.82040   0.17053   0.57246   0.00000  Uiso   1.00
C574   C     0.79957   0.12644   0.53966   0.00000  Uiso   1.00
C575   C     0.78242   0.04359   0.55780   0.00000  Uiso   1.00
H576   H     0.85085   0.16383   0.68931   0.00000  Uiso   1.00
H577   H     0.83672   0.34278   0.72882   0.00000  Uiso   1.00
H578   H     0.90722   0.11674   0.67495   0.00000  Uiso   1.00
H579   H     0.80964   0.02150   0.67790   0.00000  Uiso   1.00
H580   H     0.81948   0.55765   0.75093   0.00000  Uiso   1.00
H581   H     0.96813   0.08101   0.63734   0.00000  Uiso   1.00
H582   H     0.76237   0.88016   0.64357   0.00000  Uiso   1.00
H583   H     0.83868   0.29072   0.52217   0.00000  Uiso   1.00
H584   H     0.82388   0.47664   0.55251   0.00000  Uiso   1.00
H585   H     0.89438   0.25060   0.49864   0.00000  Uiso   1.00
H586   H     0.79680   0.15536   0.50160   0.00000  Uiso   1.00
H587   H     0.80906   0.66629   0.60783   0.00000  Uiso   1.00
H588   H     0.95771   0.18965   0.49424   0.00000  Uiso   1.00
H589   H     0.75195   0.98881   0.50048   0.00000  Uiso   1.00
O590   O     0.80476   0.73199   0.70236   0.00000  Uiso   1.00
O591   O     0.99978   0.10664   0.55333   0.00000  Uiso   1.00
O592   O     0.72983   0.84314   0.56151   0.00000  Uiso   1.00
N593   N     0.81905   0.55770   0.71309   0.00000  Uiso   1.00
N594   N     0.95803   0.11209   0.60689   0.00000  Uiso   1.00
N595   N     0.76567   0.92429   0.61272   0.00000  Uiso   1.00
N596   N     0.81345   0.61616   0.63609   0.00000  Uiso   1.00
N597   N     0.95243   0.17055   0.52989   0.00000  Uiso   1.00
N598   N     0.76006   0.98276   0.53572   0.00000  Uiso   1.00
C599   C     0.87071   0.11148   0.85022   0.00000  Uiso   1.00
C600   C     0.85931   0.99929   0.85515   0.00000  Uiso   1.00
C601   C     0.85190   0.93328   0.81555   0.00000  Uiso   1.00
C602   C     0.84190   0.83352   0.82790   0.00000  Uiso   1.00
C603   C     0.82460   0.66425   0.82793   0.00000  Uiso   1.00
C604   C     0.90079   0.11526   0.87820   0.00000  Uiso   1.00
C605   C     0.92826   0.14677   0.85798   0.00000  Uiso   1.00
C606   C     0.95319   0.14464   0.88974   0.00000  Uiso   1.00
C607   C     0.00028   0.15547   0.92557   0.00000  Uiso   1.00
C608   C     0.84888   0.17891   0.88059   0.00000  Uiso   1.00
C609   C     0.83271   0.26396   0.86239   0.00000  Uiso   1.00
C610   C     0.81393   0.31544   0.89616   0.00000  Uiso   1.00
C611   C     0.78042   0.42511   0.93569   0.00000  Uiso   1.00
C612   C     0.86612   0.05170   0.94256   0.00000  Uiso   1.00
C613   C     0.85682   0.96682   0.90531   0.00000  Uiso   1.00
C614   C     0.84683   0.86714   0.91772   0.00000  Uiso   1.00
C615   C     0.83941   0.80099   0.87815   0.00000  Uiso   1.00
C616   C     0.89831   0.08279   0.92836   0.00000  Uiso   1.00
C617   C     0.92319   0.08062   0.96015   0.00000  Uiso   1.00
C618   C     0.95069   0.11211   0.93999   0.00000  Uiso   1.00
C619   C     0.84639   0.14644   0.93075   0.00000  Uiso   1.00
C620   C     0.82763   0.19781   0.96456   0.00000  Uiso   1.00
C621   C     0.81143   0.28291   0.94641   0.00000  Uiso   1.00
H622   H     0.87265   0.13676   0.81117   0.00000  Uiso   1.00
H623   H     0.85383   0.95844   0.77674   0.00000  Uiso   1.00
H624   H     0.93018   0.17190   0.81917   0.00000  Uiso   1.00
H625   H     0.83464   0.28907   0.82357   0.00000  Uiso   1.00
H626   H     0.83189   0.74640   0.76069   0.00000  Uiso   1.00
H627   H     0.99287   0.19652   0.85016   0.00000  Uiso   1.00
H628   H     0.79140   0.44361   0.85944   0.00000  Uiso   1.00
H629   H     0.86419   0.02642   0.98162   0.00000  Uiso   1.00
H630   H     0.84491   0.84203   0.95654   0.00000  Uiso   1.00
H631   H     0.92126   0.05549   0.99897   0.00000  Uiso   1.00
H632   H     0.82571   0.17266   0.00337   0.00000  Uiso   1.00
H633   H     0.82464   0.65192   0.90663   0.00000  Uiso   1.00
H634   H     0.98563   0.10205   0.99609   0.00000  Uiso   1.00
H635   H     0.78416   0.34912   0.00537   0.00000  Uiso   1.00
O636   O     0.81575   0.57984   0.81409   0.00000  Uiso   1.00
O637   O     0.02695   0.17041   0.93146   0.00000  Uiso   1.00
O638   O     0.76262   0.49457   0.94364   0.00000  Uiso   1.00
N639   N     0.83282   0.74947   0.79848   0.00000  Uiso   1.00
N640   N     0.98333   0.17030   0.88212   0.00000  Uiso   1.00
N641   N     0.79498   0.40132   0.89080   0.00000  Uiso   1.00
N642   N     0.82892   0.69863   0.87700   0.00000  Uiso   1.00
N643   N     0.97944   0.11946   0.96065   0.00000  Uiso   1.00
N644   N     0.79108   0.35048   0.96933   0.00000  Uiso   1.00
C645   C     0.34806   0.69291   0.65102   0.00000  Uiso   1.00
C646   C     0.33869   0.80772   0.64931   0.00000  Uiso   1.00
C647   C     0.33394   0.87170   0.69076   0.00000  Uiso   1.00
C648   C     0.32548   0.97447   0.68128   0.00000  Uiso   1.00
C649   C     0.31149   0.14709   0.68611   0.00000  Uiso   1.00
C650   C     0.37700   0.68493   0.62004   0.00000  Uiso   1.00
C651   C     0.40445   0.64564   0.63689   0.00000  Uiso   1.00
C652   C     0.42823   0.64503   0.60276   0.00000  Uiso   1.00
C653   C     0.47371   0.62693   0.56214   0.00000  Uiso   1.00
C654   C     0.32398   0.63319   0.62165   0.00000  Uiso   1.00
C655   C     0.30686   0.55037   0.63984   0.00000  Uiso   1.00
C656   C     0.28601   0.50618   0.60707   0.00000  Uiso   1.00
C657   C     0.24917   0.40774   0.56895   0.00000  Uiso   1.00
C658   C     0.34147   0.76165   0.56046   0.00000  Uiso   1.00
C659   C     0.33511   0.84506   0.60012   0.00000  Uiso   1.00
C660   C     0.32665   0.94776   0.59058   0.00000  Uiso   1.00
C661   C     0.32189   0.01188   0.63201   0.00000  Uiso   1.00
C662   C     0.37342   0.72227   0.57086   0.00000  Uiso   1.00
C663   C     0.39716   0.72170   0.53670   0.00000  Uiso   1.00
C664   C     0.42464   0.68244   0.55349   0.00000  Uiso   1.00
C665   C     0.32040   0.67053   0.57246   0.00000  Uiso   1.00
C666   C     0.29957   0.62644   0.53966   0.00000  Uiso   1.00
C667   C     0.28242   0.54359   0.55780   0.00000  Uiso   1.00
H668   H     0.35085   0.66383   0.68931   0.00000  Uiso   1.00
H669   H     0.33672   0.84278   0.72882   0.00000  Uiso   1.00
H670   H     0.40722   0.61674   0.67495   0.00000  Uiso   1.00
H671   H     0.30964   0.52150   0.67790   0.00000  Uiso   1.00
H672   H     0.31948   0.05765   0.75093   0.00000  Uiso   1.00
H673   H     0.46813   0.58101   0.63734   0.00000  Uiso   1.00
H674   H     0.26237   0.38016   0.64357   0.00000  Uiso   1.00
H675   H     0.33868   0.79072   0.52217   0.00000  Uiso   1.00
H676   H     0.32388   0.97664   0.55251   0.00000  Uiso   1.00
H677   H     0.39438   0.75060   0.49864   0.00000  Uiso   1.00
H678   H     0.29680   0.65536   0.50160   0.00000  Uiso   1.00
H679   H     0.30906   0.16629   0.60783   0.00000  Uiso   1.00
H680   H     0.45771   0.68965   0.49424   0.00000  Uiso   1.00
H681   H     0.25195   0.48881   0.50048   0.00000  Uiso   1.00
O682   O     0.30476   0.23199   0.70236   0.00000  Uiso   1.00
O683   O     0.49978   0.60664   0.55333   0.00000  Uiso   1.00
O684   O     0.22983   0.34314   0.56151   0.00000  Uiso   1.00
N685   N     0.31905   0.05770   0.71309   0.00000  Uiso   1.00
N686   N     0.45803   0.61209   0.60689   0.00000  Uiso   1.00
N687   N     0.26567   0.42429   0.61272   0.00000  Uiso   1.00
N688   N     0.31345   0.11616   0.63609   0.00000  Uiso   1.00
N689   N     0.45243   0.67055   0.52989   0.00000  Uiso   1.00
N690   N     0.26006   0.48276   0.53572   0.00000  Uiso   1.00
C691   C     0.37071   0.61148   0.85022   0.00000  Uiso   1.00
C692   C     0.35931   0.49929   0.85515   0.00000  Uiso   1.00
C693   C     0.35190   0.43328   0.81555   0.00000  Uiso   1.00
C694   C     0.34190   0.33352   0.82790   0.00000  Uiso   1.00
C695   C     0.32460   0.16425   0.82793   0.00000  Uiso   1.00
C696   C     0.40079   0.61526   0.87820   0.00000  Uiso   1.00
C697   C     0.42826   0.64677   0.85798   0.00000  Uiso   1.00
C698   C     0.45319   0.64464   0.88974   0.00000  Uiso   1.00
C699   C     0.50028   0.65547   0.92557   0.00000  Uiso   1.00
C700   C     0.34888   0.67891   0.88059   0.00000  Uiso   1.00
C701   C     0.33271   0.76396   0.86239   0.00000  Uiso   1.00
C702   C     0.31393   0.81544   0.89616   0.00000  Uiso   1.00
C703   C     0.28042   0.92511   0.93569   0.00000  Uiso   1.00
C704   C     0.36612   0.55170   0.94256   0.00000  Uiso   1.00
C705   C     0.35682   0.46682   0.90531   0.00000  Uiso   1.00
C706   C     0.34683   0.36714   0.91772   0.00000  Uiso   1.00
C707   C     0.33941   0.30099   0.87815   0.00000  Uiso   1.00
C708   C     0.39830   0.58279   0.92836   0.00000  Uiso   1.00
C709   C     0.42319   0.58062   0.96015   0.00000  Uiso   1.00
C710   C     0.45069   0.61211   0.93999   0.00000  Uiso   1.00
C711   C     0.34639   0.64644   0.93075   0.00000  Uiso   1.00
C712   C     0.32763   0.69781   0.96456   0.00000  Uiso   1.00
C713   C     0.31143   0.78291   0.94641   0.00000  Uiso   1.00
H714   H     0.37265   0.63676   0.81117   0.00000  Uiso   1.00
H715   H     0.35383   0.45844   0.77674   0.00000  Uiso   1.00
H716   H     0.43018   0.67190   0.81917   0.00000  Uiso   1.00
H717   H     0.33464   0.78907   0.82357   0.00000  Uiso   1.00
H718   H     0.33189   0.24640   0.76069   0.00000  Uiso   1.00
H719   H     0.49287   0.69652   0.85016   0.00000  Uiso   1.00
H720   H     0.29140   0.94361   0.85944   0.00000  Uiso   1.00
H721   H     0.36419   0.52642   0.98162   0.00000  Uiso   1.00
H722   H     0.34491   0.34203   0.95654   0.00000  Uiso   1.00
H723   H     0.42126   0.55549   0.99897   0.00000  Uiso   1.00
H724   H     0.32571   0.67266   0.00337   0.00000  Uiso   1.00
H725   H     0.32464   0.15192   0.90663   0.00000  Uiso   1.00
H726   H     0.48563   0.60205   0.99609   0.00000  Uiso   1.00
H727   H     0.28416   0.84912   0.00537   0.00000  Uiso   1.00
O728   O     0.31575   0.07984   0.81409   0.00000  Uiso   1.00
O729   O     0.52695   0.67041   0.93146   0.00000  Uiso   1.00
O730   O     0.26262   0.99457   0.94364   0.00000  Uiso   1.00
N731   N     0.33282   0.24947   0.79848   0.00000  Uiso   1.00
N732   N     0.48333   0.67030   0.88212   0.00000  Uiso   1.00
N733   N     0.29498   0.90132   0.89080   0.00000  Uiso   1.00
N734   N     0.32892   0.19863   0.87700   0.00000  Uiso   1.00
N735   N     0.47944   0.61946   0.96065   0.00000  Uiso   1.00
N736   N     0.29108   0.85048   0.96933   0.00000  Uiso   1.00
