data_job_02567
_audit_creation_date              2018-12-19
_audit_creation_method            'Materials Studio'
_symmetry_space_group_name_H-M    'P1'
_symmetry_Int_Tables_number       1
_symmetry_cell_setting            triclinic
loop_
_symmetry_equiv_pos_as_xyz
  x,y,z
_cell_length_a                    45.1455
_cell_length_b                    32.9955
_cell_length_c                    7.1335
_cell_angle_alpha                 90.0000
_cell_angle_beta                  90.0000
_cell_angle_gamma                 90.0000
loop_
_atom_site_label
_atom_site_type_symbol
_atom_site_fract_x
_atom_site_fract_y
_atom_site_fract_z
_atom_site_U_iso_or_equiv
_atom_site_adp_type
_atom_site_occupancy
C1     C     0.40434   0.45792   0.54601   0.00000  Uiso   1.00
C2     C     0.41463   0.49571   0.65034   0.00000  Uiso   1.00
C3     C     0.42819   0.52921   0.56988   0.00000  Uiso   1.00
C4     C     0.43594   0.56071   0.68925   0.00000  Uiso   1.00
C5     C     0.45280   0.61970   0.82193   0.00000  Uiso   1.00
C6     C     0.41981   0.42225   0.64030   0.00000  Uiso   1.00
C7     C     0.43773   0.39398   0.55139   0.00000  Uiso   1.00
C8     C     0.44984   0.36363   0.66231   0.00000  Uiso   1.00
C9     C     0.47472   0.30855   0.77937   0.00000  Uiso   1.00
C10    C     0.37148   0.45329   0.59070   0.00000  Uiso   1.00
C11    C     0.34875   0.45110   0.46010   0.00000  Uiso   1.00
C12    C     0.32017   0.44687   0.52927   0.00000  Uiso   1.00
C13    C     0.27001   0.43997   0.56933   0.00000  Uiso   1.00
C14    C     0.39400   0.45428   0.90107   0.00000  Uiso   1.00
C15    C     0.40901   0.49374   0.84319   0.00000  Uiso   1.00
C16    C     0.41675   0.52519   0.96272   0.00000  Uiso   1.00
C17    C     0.43031   0.55873   0.88245   0.00000  Uiso   1.00
C18    C     0.41420   0.42028   0.83315   0.00000  Uiso   1.00
C19    C     0.42628   0.38996   0.94422   0.00000  Uiso   1.00
C20    C     0.44421   0.36166   0.85551   0.00000  Uiso   1.00
C21    C     0.36586   0.45131   0.78356   0.00000  Uiso   1.00
C22    C     0.33731   0.44708   0.85294   0.00000  Uiso   1.00
C23    C     0.31454   0.44489   0.72247   0.00000  Uiso   1.00
H24    H     0.40871   0.45945   0.39586   0.00000  Uiso   1.00
H25    H     0.43254   0.53073   0.42063   0.00000  Uiso   1.00
H26    H     0.44207   0.39552   0.40214   0.00000  Uiso   1.00
H27    H     0.35311   0.45263   0.31087   0.00000  Uiso   1.00
H28    H     0.45648   0.60888   0.53315   0.00000  Uiso   1.00
H29    H     0.47657   0.32377   0.49415   0.00000  Uiso   1.00
H30    H     0.28898   0.44420   0.30169   0.00000  Uiso   1.00
H31    H     0.38962   0.45274   0.05122   0.00000  Uiso   1.00
H32    H     0.41240   0.52366   0.11195   0.00000  Uiso   1.00
H33    H     0.42193   0.38844   0.09346   0.00000  Uiso   1.00
H34    H     0.33297   0.44555   0.00219   0.00000  Uiso   1.00
H35    H     0.44014   0.60314   0.09425   0.00000  Uiso   1.00
H36    H     0.46023   0.31802   0.05525   0.00000  Uiso   1.00
H37    H     0.27264   0.43846   0.86279   0.00000  Uiso   1.00
O38    O     0.46365   0.65277   0.84184   0.00000  Uiso   1.00
O39    O     0.49000   0.27871   0.79066   0.00000  Uiso   1.00
O40    O     0.24389   0.43672   0.53815   0.00000  Uiso   1.00
N41    N     0.44950   0.59780   0.65687   0.00000  Uiso   1.00
N42    N     0.46829   0.33124   0.62041   0.00000  Uiso   1.00
N43    N     0.29291   0.44382   0.44047   0.00000  Uiso   1.00
N44    N     0.44071   0.59471   0.95879   0.00000  Uiso   1.00
N45    N     0.45950   0.32815   0.92233   0.00000  Uiso   1.00
N46    N     0.28412   0.44073   0.74239   0.00000  Uiso   1.00
C47    C     0.40434   0.95792   0.04601   0.00000  Uiso   1.00
C48    C     0.41463   0.99571   0.15034   0.00000  Uiso   1.00
C49    C     0.42819   0.02921   0.06988   0.00000  Uiso   1.00
C50    C     0.43594   0.06071   0.18925   0.00000  Uiso   1.00
C51    C     0.45280   0.11970   0.32193   0.00000  Uiso   1.00
C52    C     0.41981   0.92225   0.14030   0.00000  Uiso   1.00
C53    C     0.43773   0.89398   0.05139   0.00000  Uiso   1.00
C54    C     0.44984   0.86363   0.16231   0.00000  Uiso   1.00
C55    C     0.47472   0.80855   0.27937   0.00000  Uiso   1.00
C56    C     0.37148   0.95329   0.09070   0.00000  Uiso   1.00
C57    C     0.34875   0.95110   0.96010   0.00000  Uiso   1.00
C58    C     0.32017   0.94687   0.02927   0.00000  Uiso   1.00
C59    C     0.27001   0.93997   0.06933   0.00000  Uiso   1.00
C60    C     0.39400   0.95428   0.40107   0.00000  Uiso   1.00
C61    C     0.40901   0.99374   0.34319   0.00000  Uiso   1.00
C62    C     0.41675   0.02519   0.46272   0.00000  Uiso   1.00
C63    C     0.43031   0.05873   0.38245   0.00000  Uiso   1.00
C64    C     0.41420   0.92028   0.33315   0.00000  Uiso   1.00
C65    C     0.42628   0.88996   0.44422   0.00000  Uiso   1.00
C66    C     0.44421   0.86166   0.35551   0.00000  Uiso   1.00
C67    C     0.36586   0.95131   0.28356   0.00000  Uiso   1.00
C68    C     0.33731   0.94708   0.35294   0.00000  Uiso   1.00
C69    C     0.31454   0.94489   0.22247   0.00000  Uiso   1.00
H70    H     0.40871   0.95945   0.89586   0.00000  Uiso   1.00
H71    H     0.43254   0.03073   0.92063   0.00000  Uiso   1.00
H72    H     0.44207   0.89552   0.90214   0.00000  Uiso   1.00
H73    H     0.35311   0.95263   0.81087   0.00000  Uiso   1.00
H74    H     0.45648   0.10888   0.03315   0.00000  Uiso   1.00
H75    H     0.47657   0.82377   0.99415   0.00000  Uiso   1.00
H76    H     0.28898   0.94420   0.80169   0.00000  Uiso   1.00
H77    H     0.38962   0.95274   0.55122   0.00000  Uiso   1.00
H78    H     0.41240   0.02366   0.61195   0.00000  Uiso   1.00
H79    H     0.42193   0.88844   0.59346   0.00000  Uiso   1.00
H80    H     0.33297   0.94555   0.50219   0.00000  Uiso   1.00
H81    H     0.44014   0.10314   0.59425   0.00000  Uiso   1.00
H82    H     0.46023   0.81802   0.55525   0.00000  Uiso   1.00
H83    H     0.27264   0.93846   0.36279   0.00000  Uiso   1.00
O84    O     0.46365   0.15277   0.34184   0.00000  Uiso   1.00
O85    O     0.49000   0.77871   0.29066   0.00000  Uiso   1.00
O86    O     0.24389   0.93672   0.03815   0.00000  Uiso   1.00
N87    N     0.44950   0.09780   0.15687   0.00000  Uiso   1.00
N88    N     0.46829   0.83124   0.12041   0.00000  Uiso   1.00
N89    N     0.29291   0.94382   0.94047   0.00000  Uiso   1.00
N90    N     0.44071   0.09471   0.45879   0.00000  Uiso   1.00
N91    N     0.45950   0.82815   0.42233   0.00000  Uiso   1.00
N92    N     0.28412   0.94073   0.24239   0.00000  Uiso   1.00
C93    C     0.90434   0.45792   0.04601   0.00000  Uiso   1.00
C94    C     0.91463   0.49571   0.15034   0.00000  Uiso   1.00
C95    C     0.92819   0.52921   0.06988   0.00000  Uiso   1.00
C96    C     0.93594   0.56071   0.18925   0.00000  Uiso   1.00
C97    C     0.95280   0.61970   0.32193   0.00000  Uiso   1.00
C98    C     0.91981   0.42225   0.14030   0.00000  Uiso   1.00
C99    C     0.93773   0.39398   0.05139   0.00000  Uiso   1.00
C100   C     0.94984   0.36363   0.16231   0.00000  Uiso   1.00
C101   C     0.97472   0.30855   0.27937   0.00000  Uiso   1.00
C102   C     0.87148   0.45329   0.09070   0.00000  Uiso   1.00
C103   C     0.84875   0.45110   0.96010   0.00000  Uiso   1.00
C104   C     0.82017   0.44687   0.02927   0.00000  Uiso   1.00
C105   C     0.77001   0.43997   0.06933   0.00000  Uiso   1.00
C106   C     0.89400   0.45428   0.40107   0.00000  Uiso   1.00
C107   C     0.90901   0.49374   0.34319   0.00000  Uiso   1.00
C108   C     0.91675   0.52519   0.46272   0.00000  Uiso   1.00
C109   C     0.93031   0.55873   0.38245   0.00000  Uiso   1.00
C110   C     0.91420   0.42028   0.33315   0.00000  Uiso   1.00
C111   C     0.92628   0.38996   0.44422   0.00000  Uiso   1.00
C112   C     0.94421   0.36166   0.35551   0.00000  Uiso   1.00
C113   C     0.86586   0.45131   0.28356   0.00000  Uiso   1.00
C114   C     0.83731   0.44708   0.35294   0.00000  Uiso   1.00
C115   C     0.81454   0.44489   0.22247   0.00000  Uiso   1.00
H116   H     0.90871   0.45945   0.89586   0.00000  Uiso   1.00
H117   H     0.93254   0.53073   0.92063   0.00000  Uiso   1.00
H118   H     0.94207   0.39552   0.90214   0.00000  Uiso   1.00
H119   H     0.85311   0.45263   0.81087   0.00000  Uiso   1.00
H120   H     0.95648   0.60888   0.03315   0.00000  Uiso   1.00
H121   H     0.97657   0.32377   0.99415   0.00000  Uiso   1.00
H122   H     0.78898   0.44420   0.80169   0.00000  Uiso   1.00
H123   H     0.88962   0.45274   0.55122   0.00000  Uiso   1.00
H124   H     0.91240   0.52366   0.61195   0.00000  Uiso   1.00
H125   H     0.92193   0.38844   0.59346   0.00000  Uiso   1.00
H126   H     0.83297   0.44555   0.50219   0.00000  Uiso   1.00
H127   H     0.94014   0.60314   0.59425   0.00000  Uiso   1.00
H128   H     0.96023   0.31802   0.55525   0.00000  Uiso   1.00
H129   H     0.77264   0.43846   0.36279   0.00000  Uiso   1.00
O130   O     0.96365   0.65277   0.34184   0.00000  Uiso   1.00
O131   O     0.99000   0.27871   0.29066   0.00000  Uiso   1.00
O132   O     0.74389   0.43672   0.03815   0.00000  Uiso   1.00
N133   N     0.94950   0.59780   0.15687   0.00000  Uiso   1.00
N134   N     0.96829   0.33124   0.12041   0.00000  Uiso   1.00
N135   N     0.79291   0.44382   0.94047   0.00000  Uiso   1.00
N136   N     0.94071   0.59471   0.45879   0.00000  Uiso   1.00
N137   N     0.95950   0.32815   0.42233   0.00000  Uiso   1.00
N138   N     0.78412   0.44073   0.24239   0.00000  Uiso   1.00
C139   C     0.90434   0.95792   0.54601   0.00000  Uiso   1.00
C140   C     0.91463   0.99571   0.65034   0.00000  Uiso   1.00
C141   C     0.92819   0.02921   0.56988   0.00000  Uiso   1.00
C142   C     0.93594   0.06071   0.68925   0.00000  Uiso   1.00
C143   C     0.95280   0.11970   0.82193   0.00000  Uiso   1.00
C144   C     0.91981   0.92225   0.64030   0.00000  Uiso   1.00
C145   C     0.93773   0.89398   0.55139   0.00000  Uiso   1.00
C146   C     0.94984   0.86363   0.66231   0.00000  Uiso   1.00
C147   C     0.97472   0.80855   0.77937   0.00000  Uiso   1.00
C148   C     0.87148   0.95329   0.59070   0.00000  Uiso   1.00
C149   C     0.84875   0.95110   0.46010   0.00000  Uiso   1.00
C150   C     0.82017   0.94687   0.52927   0.00000  Uiso   1.00
C151   C     0.77001   0.93997   0.56933   0.00000  Uiso   1.00
C152   C     0.89400   0.95428   0.90107   0.00000  Uiso   1.00
C153   C     0.90901   0.99374   0.84319   0.00000  Uiso   1.00
C154   C     0.91675   0.02519   0.96272   0.00000  Uiso   1.00
C155   C     0.93031   0.05873   0.88245   0.00000  Uiso   1.00
C156   C     0.91420   0.92028   0.83315   0.00000  Uiso   1.00
C157   C     0.92628   0.88996   0.94422   0.00000  Uiso   1.00
C158   C     0.94421   0.86166   0.85551   0.00000  Uiso   1.00
C159   C     0.86586   0.95131   0.78356   0.00000  Uiso   1.00
C160   C     0.83731   0.94708   0.85294   0.00000  Uiso   1.00
C161   C     0.81454   0.94489   0.72247   0.00000  Uiso   1.00
H162   H     0.90871   0.95945   0.39586   0.00000  Uiso   1.00
H163   H     0.93254   0.03073   0.42063   0.00000  Uiso   1.00
H164   H     0.94207   0.89552   0.40214   0.00000  Uiso   1.00
H165   H     0.85311   0.95263   0.31087   0.00000  Uiso   1.00
H166   H     0.95648   0.10888   0.53315   0.00000  Uiso   1.00
H167   H     0.97657   0.82377   0.49415   0.00000  Uiso   1.00
H168   H     0.78898   0.94420   0.30169   0.00000  Uiso   1.00
H169   H     0.88962   0.95274   0.05122   0.00000  Uiso   1.00
H170   H     0.91240   0.02366   0.11195   0.00000  Uiso   1.00
H171   H     0.92193   0.88844   0.09346   0.00000  Uiso   1.00
H172   H     0.83297   0.94555   0.00219   0.00000  Uiso   1.00
H173   H     0.94014   0.10314   0.09425   0.00000  Uiso   1.00
H174   H     0.96023   0.81802   0.05525   0.00000  Uiso   1.00
H175   H     0.77264   0.93846   0.86279   0.00000  Uiso   1.00
O176   O     0.96365   0.15277   0.84184   0.00000  Uiso   1.00
O177   O     0.99000   0.77871   0.79066   0.00000  Uiso   1.00
O178   O     0.74389   0.93672   0.53815   0.00000  Uiso   1.00
N179   N     0.94950   0.09780   0.65687   0.00000  Uiso   1.00
N180   N     0.96829   0.83124   0.62041   0.00000  Uiso   1.00
N181   N     0.79291   0.94382   0.44047   0.00000  Uiso   1.00
N182   N     0.94071   0.09471   0.95879   0.00000  Uiso   1.00
N183   N     0.95950   0.82815   0.92233   0.00000  Uiso   1.00
N184   N     0.78412   0.94073   0.74239   0.00000  Uiso   1.00
C185   C     0.59566   0.54208   0.54601   0.00000  Uiso   1.00
C186   C     0.58537   0.50429   0.65034   0.00000  Uiso   1.00
C187   C     0.57181   0.47079   0.56988   0.00000  Uiso   1.00
C188   C     0.56406   0.43929   0.68925   0.00000  Uiso   1.00
C189   C     0.54720   0.38030   0.82193   0.00000  Uiso   1.00
C190   C     0.58019   0.57775   0.64030   0.00000  Uiso   1.00
C191   C     0.56227   0.60602   0.55139   0.00000  Uiso   1.00
C192   C     0.55016   0.63637   0.66231   0.00000  Uiso   1.00
C193   C     0.52528   0.69145   0.77937   0.00000  Uiso   1.00
C194   C     0.62852   0.54671   0.59070   0.00000  Uiso   1.00
C195   C     0.65125   0.54890   0.46010   0.00000  Uiso   1.00
C196   C     0.67983   0.55313   0.52927   0.00000  Uiso   1.00
C197   C     0.72999   0.56003   0.56933   0.00000  Uiso   1.00
C198   C     0.60600   0.54572   0.90107   0.00000  Uiso   1.00
C199   C     0.59099   0.50626   0.84319   0.00000  Uiso   1.00
C200   C     0.58325   0.47481   0.96272   0.00000  Uiso   1.00
C201   C     0.56969   0.44127   0.88245   0.00000  Uiso   1.00
C202   C     0.58580   0.57972   0.83315   0.00000  Uiso   1.00
C203   C     0.57372   0.61004   0.94422   0.00000  Uiso   1.00
C204   C     0.55579   0.63834   0.85551   0.00000  Uiso   1.00
C205   C     0.63414   0.54869   0.78356   0.00000  Uiso   1.00
C206   C     0.66269   0.55292   0.85294   0.00000  Uiso   1.00
C207   C     0.68546   0.55511   0.72247   0.00000  Uiso   1.00
H208   H     0.59129   0.54055   0.39586   0.00000  Uiso   1.00
H209   H     0.56746   0.46927   0.42063   0.00000  Uiso   1.00
H210   H     0.55793   0.60448   0.40214   0.00000  Uiso   1.00
H211   H     0.64689   0.54737   0.31087   0.00000  Uiso   1.00
H212   H     0.54352   0.39112   0.53315   0.00000  Uiso   1.00
H213   H     0.52343   0.67623   0.49415   0.00000  Uiso   1.00
H214   H     0.71102   0.55580   0.30169   0.00000  Uiso   1.00
H215   H     0.61038   0.54726   0.05122   0.00000  Uiso   1.00
H216   H     0.58760   0.47634   0.11195   0.00000  Uiso   1.00
H217   H     0.57807   0.61156   0.09346   0.00000  Uiso   1.00
H218   H     0.66703   0.55445   0.00219   0.00000  Uiso   1.00
H219   H     0.55986   0.39686   0.09425   0.00000  Uiso   1.00
H220   H     0.53977   0.68198   0.05525   0.00000  Uiso   1.00
H221   H     0.72736   0.56154   0.86279   0.00000  Uiso   1.00
O222   O     0.53635   0.34723   0.84184   0.00000  Uiso   1.00
O223   O     0.51000   0.72129   0.79066   0.00000  Uiso   1.00
O224   O     0.75611   0.56328   0.53815   0.00000  Uiso   1.00
N225   N     0.55050   0.40220   0.65687   0.00000  Uiso   1.00
N226   N     0.53171   0.66876   0.62041   0.00000  Uiso   1.00
N227   N     0.70709   0.55618   0.44047   0.00000  Uiso   1.00
N228   N     0.55929   0.40529   0.95879   0.00000  Uiso   1.00
N229   N     0.54050   0.67185   0.92233   0.00000  Uiso   1.00
N230   N     0.71588   0.55927   0.74239   0.00000  Uiso   1.00
C231   C     0.59566   0.04208   0.04601   0.00000  Uiso   1.00
C232   C     0.58537   0.00429   0.15034   0.00000  Uiso   1.00
C233   C     0.57181   0.97079   0.06988   0.00000  Uiso   1.00
C234   C     0.56406   0.93929   0.18925   0.00000  Uiso   1.00
C235   C     0.54720   0.88030   0.32193   0.00000  Uiso   1.00
C236   C     0.58019   0.07775   0.14030   0.00000  Uiso   1.00
C237   C     0.56227   0.10602   0.05139   0.00000  Uiso   1.00
C238   C     0.55016   0.13637   0.16231   0.00000  Uiso   1.00
C239   C     0.52528   0.19145   0.27937   0.00000  Uiso   1.00
C240   C     0.62852   0.04671   0.09070   0.00000  Uiso   1.00
C241   C     0.65125   0.04890   0.96010   0.00000  Uiso   1.00
C242   C     0.67983   0.05313   0.02927   0.00000  Uiso   1.00
C243   C     0.72999   0.06003   0.06933   0.00000  Uiso   1.00
C244   C     0.60600   0.04572   0.40107   0.00000  Uiso   1.00
C245   C     0.59099   0.00626   0.34319   0.00000  Uiso   1.00
C246   C     0.58325   0.97481   0.46272   0.00000  Uiso   1.00
C247   C     0.56969   0.94127   0.38245   0.00000  Uiso   1.00
C248   C     0.58580   0.07972   0.33315   0.00000  Uiso   1.00
C249   C     0.57372   0.11004   0.44422   0.00000  Uiso   1.00
C250   C     0.55579   0.13834   0.35551   0.00000  Uiso   1.00
C251   C     0.63414   0.04869   0.28356   0.00000  Uiso   1.00
C252   C     0.66269   0.05292   0.35294   0.00000  Uiso   1.00
C253   C     0.68546   0.05511   0.22247   0.00000  Uiso   1.00
H254   H     0.59129   0.04055   0.89586   0.00000  Uiso   1.00
H255   H     0.56746   0.96927   0.92063   0.00000  Uiso   1.00
H256   H     0.55793   0.10448   0.90214   0.00000  Uiso   1.00
H257   H     0.64689   0.04737   0.81087   0.00000  Uiso   1.00
H258   H     0.54352   0.89112   0.03315   0.00000  Uiso   1.00
H259   H     0.52343   0.17623   0.99415   0.00000  Uiso   1.00
H260   H     0.71102   0.05580   0.80169   0.00000  Uiso   1.00
H261   H     0.61038   0.04726   0.55122   0.00000  Uiso   1.00
H262   H     0.58760   0.97634   0.61195   0.00000  Uiso   1.00
H263   H     0.57807   0.11156   0.59346   0.00000  Uiso   1.00
H264   H     0.66703   0.05445   0.50219   0.00000  Uiso   1.00
H265   H     0.55986   0.89686   0.59425   0.00000  Uiso   1.00
H266   H     0.53977   0.18198   0.55525   0.00000  Uiso   1.00
H267   H     0.72736   0.06154   0.36279   0.00000  Uiso   1.00
O268   O     0.53635   0.84723   0.34184   0.00000  Uiso   1.00
O269   O     0.51000   0.22129   0.29066   0.00000  Uiso   1.00
O270   O     0.75611   0.06328   0.03815   0.00000  Uiso   1.00
N271   N     0.55050   0.90220   0.15687   0.00000  Uiso   1.00
N272   N     0.53171   0.16876   0.12041   0.00000  Uiso   1.00
N273   N     0.70709   0.05618   0.94047   0.00000  Uiso   1.00
N274   N     0.55929   0.90529   0.45879   0.00000  Uiso   1.00
N275   N     0.54050   0.17185   0.42233   0.00000  Uiso   1.00
N276   N     0.71588   0.05927   0.24239   0.00000  Uiso   1.00
C277   C     0.09566   0.54208   0.04601   0.00000  Uiso   1.00
C278   C     0.08537   0.50429   0.15034   0.00000  Uiso   1.00
C279   C     0.07181   0.47079   0.06988   0.00000  Uiso   1.00
C280   C     0.06406   0.43929   0.18925   0.00000  Uiso   1.00
C281   C     0.04720   0.38030   0.32193   0.00000  Uiso   1.00
C282   C     0.08019   0.57775   0.14030   0.00000  Uiso   1.00
C283   C     0.06227   0.60602   0.05139   0.00000  Uiso   1.00
C284   C     0.05016   0.63637   0.16231   0.00000  Uiso   1.00
C285   C     0.02528   0.69145   0.27937   0.00000  Uiso   1.00
C286   C     0.12852   0.54671   0.09070   0.00000  Uiso   1.00
C287   C     0.15125   0.54890   0.96010   0.00000  Uiso   1.00
C288   C     0.17983   0.55313   0.02927   0.00000  Uiso   1.00
C289   C     0.22999   0.56003   0.06933   0.00000  Uiso   1.00
C290   C     0.10600   0.54572   0.40107   0.00000  Uiso   1.00
C291   C     0.09099   0.50626   0.34319   0.00000  Uiso   1.00
C292   C     0.08325   0.47481   0.46272   0.00000  Uiso   1.00
C293   C     0.06969   0.44127   0.38245   0.00000  Uiso   1.00
C294   C     0.08580   0.57972   0.33315   0.00000  Uiso   1.00
C295   C     0.07372   0.61004   0.44422   0.00000  Uiso   1.00
C296   C     0.05579   0.63834   0.35551   0.00000  Uiso   1.00
C297   C     0.13414   0.54869   0.28356   0.00000  Uiso   1.00
C298   C     0.16269   0.55292   0.35294   0.00000  Uiso   1.00
C299   C     0.18546   0.55511   0.22247   0.00000  Uiso   1.00
H300   H     0.09129   0.54055   0.89586   0.00000  Uiso   1.00
H301   H     0.06746   0.46927   0.92063   0.00000  Uiso   1.00
H302   H     0.05793   0.60448   0.90214   0.00000  Uiso   1.00
H303   H     0.14689   0.54737   0.81087   0.00000  Uiso   1.00
H304   H     0.04352   0.39112   0.03315   0.00000  Uiso   1.00
H305   H     0.02343   0.67623   0.99415   0.00000  Uiso   1.00
H306   H     0.21102   0.55580   0.80169   0.00000  Uiso   1.00
H307   H     0.11038   0.54726   0.55122   0.00000  Uiso   1.00
H308   H     0.08760   0.47634   0.61195   0.00000  Uiso   1.00
H309   H     0.07807   0.61156   0.59346   0.00000  Uiso   1.00
H310   H     0.16703   0.55445   0.50219   0.00000  Uiso   1.00
H311   H     0.05986   0.39686   0.59425   0.00000  Uiso   1.00
H312   H     0.03977   0.68198   0.55525   0.00000  Uiso   1.00
H313   H     0.22736   0.56154   0.36279   0.00000  Uiso   1.00
O314   O     0.03635   0.34723   0.34184   0.00000  Uiso   1.00
O315   O     0.01000   0.72129   0.29066   0.00000  Uiso   1.00
O316   O     0.25611   0.56328   0.03815   0.00000  Uiso   1.00
N317   N     0.05050   0.40220   0.15687   0.00000  Uiso   1.00
N318   N     0.03171   0.66876   0.12041   0.00000  Uiso   1.00
N319   N     0.20709   0.55618   0.94047   0.00000  Uiso   1.00
N320   N     0.05929   0.40529   0.45879   0.00000  Uiso   1.00
N321   N     0.04050   0.67185   0.42233   0.00000  Uiso   1.00
N322   N     0.21588   0.55927   0.24239   0.00000  Uiso   1.00
C323   C     0.09566   0.04208   0.54601   0.00000  Uiso   1.00
C324   C     0.08537   0.00429   0.65034   0.00000  Uiso   1.00
C325   C     0.07181   0.97079   0.56988   0.00000  Uiso   1.00
C326   C     0.06406   0.93929   0.68925   0.00000  Uiso   1.00
C327   C     0.04720   0.88030   0.82193   0.00000  Uiso   1.00
C328   C     0.08019   0.07775   0.64030   0.00000  Uiso   1.00
C329   C     0.06227   0.10602   0.55139   0.00000  Uiso   1.00
C330   C     0.05016   0.13637   0.66231   0.00000  Uiso   1.00
C331   C     0.02528   0.19145   0.77937   0.00000  Uiso   1.00
C332   C     0.12852   0.04671   0.59070   0.00000  Uiso   1.00
C333   C     0.15125   0.04890   0.46010   0.00000  Uiso   1.00
C334   C     0.17983   0.05313   0.52927   0.00000  Uiso   1.00
C335   C     0.22999   0.06003   0.56933   0.00000  Uiso   1.00
C336   C     0.10600   0.04572   0.90107   0.00000  Uiso   1.00
C337   C     0.09099   0.00626   0.84319   0.00000  Uiso   1.00
C338   C     0.08325   0.97481   0.96272   0.00000  Uiso   1.00
C339   C     0.06969   0.94127   0.88245   0.00000  Uiso   1.00
C340   C     0.08580   0.07972   0.83315   0.00000  Uiso   1.00
C341   C     0.07372   0.11004   0.94422   0.00000  Uiso   1.00
C342   C     0.05579   0.13834   0.85551   0.00000  Uiso   1.00
C343   C     0.13414   0.04869   0.78356   0.00000  Uiso   1.00
C344   C     0.16269   0.05292   0.85294   0.00000  Uiso   1.00
C345   C     0.18546   0.05511   0.72247   0.00000  Uiso   1.00
H346   H     0.09129   0.04055   0.39586   0.00000  Uiso   1.00
H347   H     0.06746   0.96927   0.42063   0.00000  Uiso   1.00
H348   H     0.05793   0.10448   0.40214   0.00000  Uiso   1.00
H349   H     0.14689   0.04737   0.31087   0.00000  Uiso   1.00
H350   H     0.04352   0.89112   0.53315   0.00000  Uiso   1.00
H351   H     0.02343   0.17623   0.49415   0.00000  Uiso   1.00
H352   H     0.21102   0.05580   0.30169   0.00000  Uiso   1.00
H353   H     0.11038   0.04726   0.05122   0.00000  Uiso   1.00
H354   H     0.08760   0.97634   0.11195   0.00000  Uiso   1.00
H355   H     0.07807   0.11156   0.09346   0.00000  Uiso   1.00
H356   H     0.16703   0.05445   0.00219   0.00000  Uiso   1.00
H357   H     0.05986   0.89686   0.09425   0.00000  Uiso   1.00
H358   H     0.03977   0.18198   0.05525   0.00000  Uiso   1.00
H359   H     0.22736   0.06154   0.86279   0.00000  Uiso   1.00
O360   O     0.03635   0.84723   0.84184   0.00000  Uiso   1.00
O361   O     0.01000   0.22129   0.79066   0.00000  Uiso   1.00
O362   O     0.25611   0.06328   0.53815   0.00000  Uiso   1.00
N363   N     0.05050   0.90220   0.65687   0.00000  Uiso   1.00
N364   N     0.03171   0.16876   0.62041   0.00000  Uiso   1.00
N365   N     0.20709   0.05618   0.44047   0.00000  Uiso   1.00
N366   N     0.05929   0.90529   0.95879   0.00000  Uiso   1.00
N367   N     0.04050   0.17185   0.92233   0.00000  Uiso   1.00
N368   N     0.21588   0.05927   0.74239   0.00000  Uiso   1.00
C369   C     0.65434   0.79208   0.79601   0.00000  Uiso   1.00
C370   C     0.66463   0.75429   0.90034   0.00000  Uiso   1.00
C371   C     0.67819   0.72079   0.81988   0.00000  Uiso   1.00
C372   C     0.68594   0.68929   0.93925   0.00000  Uiso   1.00
C373   C     0.70280   0.63030   0.07193   0.00000  Uiso   1.00
C374   C     0.66981   0.82775   0.89030   0.00000  Uiso   1.00
C375   C     0.68773   0.85602   0.80139   0.00000  Uiso   1.00
C376   C     0.69984   0.88637   0.91231   0.00000  Uiso   1.00
C377   C     0.72472   0.94145   0.02937   0.00000  Uiso   1.00
C378   C     0.62148   0.79671   0.84070   0.00000  Uiso   1.00
C379   C     0.59875   0.79890   0.71010   0.00000  Uiso   1.00
C380   C     0.57017   0.80313   0.77927   0.00000  Uiso   1.00
C381   C     0.52001   0.81003   0.81933   0.00000  Uiso   1.00
C382   C     0.64400   0.79572   0.15107   0.00000  Uiso   1.00
C383   C     0.65901   0.75626   0.09319   0.00000  Uiso   1.00
C384   C     0.66675   0.72481   0.21272   0.00000  Uiso   1.00
C385   C     0.68031   0.69127   0.13245   0.00000  Uiso   1.00
C386   C     0.66420   0.82972   0.08315   0.00000  Uiso   1.00
C387   C     0.67628   0.86004   0.19422   0.00000  Uiso   1.00
C388   C     0.69421   0.88834   0.10551   0.00000  Uiso   1.00
C389   C     0.61586   0.79869   0.03356   0.00000  Uiso   1.00
C390   C     0.58731   0.80292   0.10294   0.00000  Uiso   1.00
C391   C     0.56454   0.80511   0.97247   0.00000  Uiso   1.00
H392   H     0.65871   0.79055   0.64586   0.00000  Uiso   1.00
H393   H     0.68254   0.71927   0.67063   0.00000  Uiso   1.00
H394   H     0.69207   0.85448   0.65214   0.00000  Uiso   1.00
H395   H     0.60311   0.79737   0.56087   0.00000  Uiso   1.00
H396   H     0.70648   0.64112   0.78315   0.00000  Uiso   1.00
H397   H     0.72657   0.92623   0.74415   0.00000  Uiso   1.00
H398   H     0.53898   0.80580   0.55169   0.00000  Uiso   1.00
H399   H     0.63962   0.79726   0.30122   0.00000  Uiso   1.00
H400   H     0.66240   0.72634   0.36195   0.00000  Uiso   1.00
H401   H     0.67193   0.86156   0.34346   0.00000  Uiso   1.00
H402   H     0.58297   0.80445   0.25219   0.00000  Uiso   1.00
H403   H     0.69014   0.64686   0.34425   0.00000  Uiso   1.00
H404   H     0.71023   0.93198   0.30525   0.00000  Uiso   1.00
H405   H     0.52264   0.81154   0.11279   0.00000  Uiso   1.00
O406   O     0.71365   0.59723   0.09184   0.00000  Uiso   1.00
O407   O     0.74000   0.97129   0.04066   0.00000  Uiso   1.00
O408   O     0.49389   0.81328   0.78815   0.00000  Uiso   1.00
N409   N     0.69950   0.65220   0.90687   0.00000  Uiso   1.00
N410   N     0.71829   0.91876   0.87041   0.00000  Uiso   1.00
N411   N     0.54291   0.80618   0.69047   0.00000  Uiso   1.00
N412   N     0.69071   0.65529   0.20879   0.00000  Uiso   1.00
N413   N     0.70950   0.92185   0.17233   0.00000  Uiso   1.00
N414   N     0.53412   0.80927   0.99239   0.00000  Uiso   1.00
C415   C     0.65434   0.29208   0.29601   0.00000  Uiso   1.00
C416   C     0.66463   0.25429   0.40034   0.00000  Uiso   1.00
C417   C     0.67819   0.22079   0.31988   0.00000  Uiso   1.00
C418   C     0.68594   0.18929   0.43925   0.00000  Uiso   1.00
C419   C     0.70280   0.13030   0.57193   0.00000  Uiso   1.00
C420   C     0.66981   0.32775   0.39030   0.00000  Uiso   1.00
C421   C     0.68773   0.35602   0.30139   0.00000  Uiso   1.00
C422   C     0.69984   0.38637   0.41231   0.00000  Uiso   1.00
C423   C     0.72472   0.44145   0.52937   0.00000  Uiso   1.00
C424   C     0.62148   0.29671   0.34070   0.00000  Uiso   1.00
C425   C     0.59875   0.29890   0.21010   0.00000  Uiso   1.00
C426   C     0.57017   0.30313   0.27927   0.00000  Uiso   1.00
C427   C     0.52001   0.31003   0.31933   0.00000  Uiso   1.00
C428   C     0.64400   0.29572   0.65107   0.00000  Uiso   1.00
C429   C     0.65901   0.25626   0.59319   0.00000  Uiso   1.00
C430   C     0.66675   0.22481   0.71272   0.00000  Uiso   1.00
C431   C     0.68031   0.19127   0.63245   0.00000  Uiso   1.00
C432   C     0.66420   0.32972   0.58315   0.00000  Uiso   1.00
C433   C     0.67628   0.36004   0.69422   0.00000  Uiso   1.00
C434   C     0.69421   0.38834   0.60551   0.00000  Uiso   1.00
C435   C     0.61586   0.29869   0.53356   0.00000  Uiso   1.00
C436   C     0.58731   0.30292   0.60294   0.00000  Uiso   1.00
C437   C     0.56454   0.30511   0.47247   0.00000  Uiso   1.00
H438   H     0.65871   0.29055   0.14586   0.00000  Uiso   1.00
H439   H     0.68254   0.21927   0.17063   0.00000  Uiso   1.00
H440   H     0.69207   0.35448   0.15214   0.00000  Uiso   1.00
H441   H     0.60311   0.29737   0.06087   0.00000  Uiso   1.00
H442   H     0.70648   0.14112   0.28315   0.00000  Uiso   1.00
H443   H     0.72657   0.42623   0.24415   0.00000  Uiso   1.00
H444   H     0.53898   0.30580   0.05169   0.00000  Uiso   1.00
H445   H     0.63962   0.29726   0.80122   0.00000  Uiso   1.00
H446   H     0.66240   0.22634   0.86195   0.00000  Uiso   1.00
H447   H     0.67193   0.36156   0.84346   0.00000  Uiso   1.00
H448   H     0.58297   0.30445   0.75219   0.00000  Uiso   1.00
H449   H     0.69014   0.14686   0.84425   0.00000  Uiso   1.00
H450   H     0.71023   0.43198   0.80525   0.00000  Uiso   1.00
H451   H     0.52264   0.31154   0.61279   0.00000  Uiso   1.00
O452   O     0.71365   0.09723   0.59184   0.00000  Uiso   1.00
O453   O     0.74000   0.47129   0.54066   0.00000  Uiso   1.00
O454   O     0.49389   0.31328   0.28815   0.00000  Uiso   1.00
N455   N     0.69950   0.15220   0.40687   0.00000  Uiso   1.00
N456   N     0.71829   0.41876   0.37041   0.00000  Uiso   1.00
N457   N     0.54291   0.30618   0.19047   0.00000  Uiso   1.00
N458   N     0.69071   0.15529   0.70879   0.00000  Uiso   1.00
N459   N     0.70950   0.42185   0.67233   0.00000  Uiso   1.00
N460   N     0.53412   0.30927   0.49239   0.00000  Uiso   1.00
C461   C     0.15434   0.79208   0.29601   0.00000  Uiso   1.00
C462   C     0.16463   0.75429   0.40034   0.00000  Uiso   1.00
C463   C     0.17819   0.72079   0.31988   0.00000  Uiso   1.00
C464   C     0.18594   0.68929   0.43925   0.00000  Uiso   1.00
C465   C     0.20280   0.63030   0.57193   0.00000  Uiso   1.00
C466   C     0.16981   0.82775   0.39030   0.00000  Uiso   1.00
C467   C     0.18773   0.85602   0.30139   0.00000  Uiso   1.00
C468   C     0.19984   0.88637   0.41231   0.00000  Uiso   1.00
C469   C     0.22472   0.94145   0.52937   0.00000  Uiso   1.00
C470   C     0.12148   0.79671   0.34070   0.00000  Uiso   1.00
C471   C     0.09875   0.79890   0.21010   0.00000  Uiso   1.00
C472   C     0.07017   0.80313   0.27927   0.00000  Uiso   1.00
C473   C     0.02001   0.81003   0.31933   0.00000  Uiso   1.00
C474   C     0.14400   0.79572   0.65107   0.00000  Uiso   1.00
C475   C     0.15901   0.75626   0.59319   0.00000  Uiso   1.00
C476   C     0.16675   0.72481   0.71272   0.00000  Uiso   1.00
C477   C     0.18031   0.69127   0.63245   0.00000  Uiso   1.00
C478   C     0.16420   0.82972   0.58315   0.00000  Uiso   1.00
C479   C     0.17628   0.86004   0.69422   0.00000  Uiso   1.00
C480   C     0.19421   0.88834   0.60551   0.00000  Uiso   1.00
C481   C     0.11586   0.79869   0.53356   0.00000  Uiso   1.00
C482   C     0.08731   0.80292   0.60294   0.00000  Uiso   1.00
C483   C     0.06454   0.80511   0.47247   0.00000  Uiso   1.00
H484   H     0.15871   0.79055   0.14586   0.00000  Uiso   1.00
H485   H     0.18254   0.71927   0.17063   0.00000  Uiso   1.00
H486   H     0.19207   0.85448   0.15214   0.00000  Uiso   1.00
H487   H     0.10311   0.79737   0.06087   0.00000  Uiso   1.00
H488   H     0.20648   0.64112   0.28315   0.00000  Uiso   1.00
H489   H     0.22657   0.92623   0.24415   0.00000  Uiso   1.00
H490   H     0.03898   0.80580   0.05169   0.00000  Uiso   1.00
H491   H     0.13962   0.79726   0.80122   0.00000  Uiso   1.00
H492   H     0.16240   0.72634   0.86195   0.00000  Uiso   1.00
H493   H     0.17193   0.86156   0.84346   0.00000  Uiso   1.00
H494   H     0.08297   0.80445   0.75219   0.00000  Uiso   1.00
H495   H     0.19014   0.64686   0.84425   0.00000  Uiso   1.00
H496   H     0.21023   0.93198   0.80525   0.00000  Uiso   1.00
H497   H     0.02264   0.81154   0.61279   0.00000  Uiso   1.00
O498   O     0.21365   0.59723   0.59184   0.00000  Uiso   1.00
O499   O     0.24000   0.97129   0.54066   0.00000  Uiso   1.00
O500   O     0.99389   0.81328   0.28815   0.00000  Uiso   1.00
N501   N     0.19950   0.65220   0.40687   0.00000  Uiso   1.00
N502   N     0.21829   0.91876   0.37041   0.00000  Uiso   1.00
N503   N     0.04291   0.80618   0.19047   0.00000  Uiso   1.00
N504   N     0.19071   0.65529   0.70879   0.00000  Uiso   1.00
N505   N     0.20950   0.92185   0.67233   0.00000  Uiso   1.00
N506   N     0.03412   0.80927   0.49239   0.00000  Uiso   1.00
C507   C     0.15434   0.29208   0.79601   0.00000  Uiso   1.00
C508   C     0.16463   0.25429   0.90034   0.00000  Uiso   1.00
C509   C     0.17819   0.22079   0.81988   0.00000  Uiso   1.00
C510   C     0.18594   0.18929   0.93925   0.00000  Uiso   1.00
C511   C     0.20280   0.13030   0.07193   0.00000  Uiso   1.00
C512   C     0.16981   0.32775   0.89030   0.00000  Uiso   1.00
C513   C     0.18773   0.35602   0.80139   0.00000  Uiso   1.00
C514   C     0.19984   0.38637   0.91231   0.00000  Uiso   1.00
C515   C     0.22472   0.44145   0.02937   0.00000  Uiso   1.00
C516   C     0.12148   0.29671   0.84070   0.00000  Uiso   1.00
C517   C     0.09875   0.29890   0.71010   0.00000  Uiso   1.00
C518   C     0.07017   0.30313   0.77927   0.00000  Uiso   1.00
C519   C     0.02001   0.31003   0.81933   0.00000  Uiso   1.00
C520   C     0.14400   0.29572   0.15107   0.00000  Uiso   1.00
C521   C     0.15901   0.25626   0.09319   0.00000  Uiso   1.00
C522   C     0.16675   0.22481   0.21272   0.00000  Uiso   1.00
C523   C     0.18031   0.19127   0.13245   0.00000  Uiso   1.00
C524   C     0.16420   0.32972   0.08315   0.00000  Uiso   1.00
C525   C     0.17628   0.36004   0.19422   0.00000  Uiso   1.00
C526   C     0.19421   0.38834   0.10551   0.00000  Uiso   1.00
C527   C     0.11586   0.29869   0.03356   0.00000  Uiso   1.00
C528   C     0.08731   0.30292   0.10294   0.00000  Uiso   1.00
C529   C     0.06454   0.30511   0.97247   0.00000  Uiso   1.00
H530   H     0.15871   0.29055   0.64586   0.00000  Uiso   1.00
H531   H     0.18254   0.21927   0.67063   0.00000  Uiso   1.00
H532   H     0.19207   0.35448   0.65214   0.00000  Uiso   1.00
H533   H     0.10311   0.29737   0.56087   0.00000  Uiso   1.00
H534   H     0.20648   0.14112   0.78315   0.00000  Uiso   1.00
H535   H     0.22657   0.42623   0.74415   0.00000  Uiso   1.00
H536   H     0.03898   0.30580   0.55169   0.00000  Uiso   1.00
H537   H     0.13962   0.29726   0.30122   0.00000  Uiso   1.00
H538   H     0.16240   0.22634   0.36195   0.00000  Uiso   1.00
H539   H     0.17193   0.36156   0.34346   0.00000  Uiso   1.00
H540   H     0.08297   0.30445   0.25219   0.00000  Uiso   1.00
H541   H     0.19014   0.14686   0.34425   0.00000  Uiso   1.00
H542   H     0.21023   0.43198   0.30525   0.00000  Uiso   1.00
H543   H     0.02264   0.31154   0.11279   0.00000  Uiso   1.00
O544   O     0.21365   0.09723   0.09184   0.00000  Uiso   1.00
O545   O     0.24000   0.47129   0.04066   0.00000  Uiso   1.00
O546   O     0.99389   0.31328   0.78815   0.00000  Uiso   1.00
N547   N     0.19950   0.15220   0.90687   0.00000  Uiso   1.00
N548   N     0.21829   0.41876   0.87041   0.00000  Uiso   1.00
N549   N     0.04291   0.30618   0.69047   0.00000  Uiso   1.00
N550   N     0.19071   0.15529   0.20879   0.00000  Uiso   1.00
N551   N     0.20950   0.42185   0.17233   0.00000  Uiso   1.00
N552   N     0.03412   0.30927   0.99239   0.00000  Uiso   1.00
C553   C     0.84566   0.70792   0.79601   0.00000  Uiso   1.00
C554   C     0.83537   0.74571   0.90034   0.00000  Uiso   1.00
C555   C     0.82181   0.77921   0.81988   0.00000  Uiso   1.00
C556   C     0.81406   0.81071   0.93925   0.00000  Uiso   1.00
C557   C     0.79720   0.86970   0.07193   0.00000  Uiso   1.00
C558   C     0.83019   0.67225   0.89030   0.00000  Uiso   1.00
C559   C     0.81227   0.64398   0.80139   0.00000  Uiso   1.00
C560   C     0.80016   0.61363   0.91231   0.00000  Uiso   1.00
C561   C     0.77528   0.55855   0.02937   0.00000  Uiso   1.00
C562   C     0.87852   0.70329   0.84070   0.00000  Uiso   1.00
C563   C     0.90125   0.70110   0.71010   0.00000  Uiso   1.00
C564   C     0.92983   0.69687   0.77927   0.00000  Uiso   1.00
C565   C     0.97999   0.68997   0.81933   0.00000  Uiso   1.00
C566   C     0.85600   0.70428   0.15107   0.00000  Uiso   1.00
C567   C     0.84098   0.74374   0.09319   0.00000  Uiso   1.00
C568   C     0.83325   0.77519   0.21272   0.00000  Uiso   1.00
C569   C     0.81969   0.80873   0.13245   0.00000  Uiso   1.00
C570   C     0.83580   0.67028   0.08315   0.00000  Uiso   1.00
C571   C     0.82372   0.63996   0.19422   0.00000  Uiso   1.00
C572   C     0.80579   0.61166   0.10551   0.00000  Uiso   1.00
C573   C     0.88414   0.70131   0.03356   0.00000  Uiso   1.00
C574   C     0.91269   0.69708   0.10294   0.00000  Uiso   1.00
C575   C     0.93546   0.69489   0.97247   0.00000  Uiso   1.00
H576   H     0.84129   0.70945   0.64586   0.00000  Uiso   1.00
H577   H     0.81746   0.78073   0.67063   0.00000  Uiso   1.00
H578   H     0.80793   0.64552   0.65214   0.00000  Uiso   1.00
H579   H     0.89689   0.70263   0.56087   0.00000  Uiso   1.00
H580   H     0.79352   0.85888   0.78315   0.00000  Uiso   1.00
H581   H     0.77343   0.57377   0.74415   0.00000  Uiso   1.00
H582   H     0.96102   0.69420   0.55169   0.00000  Uiso   1.00
H583   H     0.86038   0.70274   0.30122   0.00000  Uiso   1.00
H584   H     0.83760   0.77366   0.36195   0.00000  Uiso   1.00
H585   H     0.82807   0.63844   0.34346   0.00000  Uiso   1.00
H586   H     0.91703   0.69555   0.25219   0.00000  Uiso   1.00
H587   H     0.80986   0.85314   0.34425   0.00000  Uiso   1.00
H588   H     0.78977   0.56802   0.30525   0.00000  Uiso   1.00
H589   H     0.97736   0.68846   0.11279   0.00000  Uiso   1.00
O590   O     0.78635   0.90277   0.09184   0.00000  Uiso   1.00
O591   O     0.76000   0.52871   0.04066   0.00000  Uiso   1.00
O592   O     0.00611   0.68672   0.78815   0.00000  Uiso   1.00
N593   N     0.80050   0.84780   0.90687   0.00000  Uiso   1.00
N594   N     0.78171   0.58124   0.87041   0.00000  Uiso   1.00
N595   N     0.95709   0.69382   0.69047   0.00000  Uiso   1.00
N596   N     0.80929   0.84471   0.20879   0.00000  Uiso   1.00
N597   N     0.79050   0.57815   0.17233   0.00000  Uiso   1.00
N598   N     0.96588   0.69073   0.99239   0.00000  Uiso   1.00
C599   C     0.84566   0.20792   0.29601   0.00000  Uiso   1.00
C600   C     0.83537   0.24571   0.40034   0.00000  Uiso   1.00
C601   C     0.82181   0.27921   0.31988   0.00000  Uiso   1.00
C602   C     0.81406   0.31071   0.43925   0.00000  Uiso   1.00
C603   C     0.79720   0.36970   0.57193   0.00000  Uiso   1.00
C604   C     0.83019   0.17225   0.39030   0.00000  Uiso   1.00
C605   C     0.81227   0.14398   0.30139   0.00000  Uiso   1.00
C606   C     0.80016   0.11363   0.41231   0.00000  Uiso   1.00
C607   C     0.77528   0.05855   0.52937   0.00000  Uiso   1.00
C608   C     0.87852   0.20329   0.34070   0.00000  Uiso   1.00
C609   C     0.90125   0.20110   0.21010   0.00000  Uiso   1.00
C610   C     0.92983   0.19687   0.27927   0.00000  Uiso   1.00
C611   C     0.97999   0.18997   0.31933   0.00000  Uiso   1.00
C612   C     0.85600   0.20428   0.65107   0.00000  Uiso   1.00
C613   C     0.84099   0.24374   0.59319   0.00000  Uiso   1.00
C614   C     0.83325   0.27519   0.71272   0.00000  Uiso   1.00
C615   C     0.81969   0.30873   0.63245   0.00000  Uiso   1.00
C616   C     0.83580   0.17028   0.58315   0.00000  Uiso   1.00
C617   C     0.82372   0.13996   0.69422   0.00000  Uiso   1.00
C618   C     0.80579   0.11166   0.60551   0.00000  Uiso   1.00
C619   C     0.88414   0.20131   0.53356   0.00000  Uiso   1.00
C620   C     0.91269   0.19708   0.60294   0.00000  Uiso   1.00
C621   C     0.93546   0.19489   0.47247   0.00000  Uiso   1.00
H622   H     0.84129   0.20945   0.14586   0.00000  Uiso   1.00
H623   H     0.81746   0.28073   0.17063   0.00000  Uiso   1.00
H624   H     0.80793   0.14552   0.15214   0.00000  Uiso   1.00
H625   H     0.89689   0.20263   0.06087   0.00000  Uiso   1.00
H626   H     0.79352   0.35888   0.28315   0.00000  Uiso   1.00
H627   H     0.77343   0.07377   0.24415   0.00000  Uiso   1.00
H628   H     0.96102   0.19420   0.05169   0.00000  Uiso   1.00
H629   H     0.86038   0.20274   0.80122   0.00000  Uiso   1.00
H630   H     0.83760   0.27366   0.86195   0.00000  Uiso   1.00
H631   H     0.82807   0.13844   0.84346   0.00000  Uiso   1.00
H632   H     0.91703   0.19555   0.75219   0.00000  Uiso   1.00
H633   H     0.80986   0.35314   0.84425   0.00000  Uiso   1.00
H634   H     0.78977   0.06802   0.80525   0.00000  Uiso   1.00
H635   H     0.97736   0.18846   0.61279   0.00000  Uiso   1.00
O636   O     0.78635   0.40277   0.59184   0.00000  Uiso   1.00
O637   O     0.76000   0.02871   0.54066   0.00000  Uiso   1.00
O638   O     0.00611   0.18672   0.28815   0.00000  Uiso   1.00
N639   N     0.80050   0.34780   0.40687   0.00000  Uiso   1.00
N640   N     0.78171   0.08124   0.37041   0.00000  Uiso   1.00
N641   N     0.95709   0.19382   0.19047   0.00000  Uiso   1.00
N642   N     0.80929   0.34471   0.70879   0.00000  Uiso   1.00
N643   N     0.79050   0.07815   0.67233   0.00000  Uiso   1.00
N644   N     0.96588   0.19073   0.49239   0.00000  Uiso   1.00
C645   C     0.34566   0.70792   0.29601   0.00000  Uiso   1.00
C646   C     0.33537   0.74571   0.40034   0.00000  Uiso   1.00
C647   C     0.32181   0.77921   0.31988   0.00000  Uiso   1.00
C648   C     0.31406   0.81071   0.43925   0.00000  Uiso   1.00
C649   C     0.29720   0.86970   0.57193   0.00000  Uiso   1.00
C650   C     0.33019   0.67225   0.39030   0.00000  Uiso   1.00
C651   C     0.31227   0.64398   0.30139   0.00000  Uiso   1.00
C652   C     0.30016   0.61363   0.41231   0.00000  Uiso   1.00
C653   C     0.27528   0.55855   0.52937   0.00000  Uiso   1.00
C654   C     0.37852   0.70329   0.34070   0.00000  Uiso   1.00
C655   C     0.40125   0.70110   0.21010   0.00000  Uiso   1.00
C656   C     0.42983   0.69687   0.27927   0.00000  Uiso   1.00
C657   C     0.47999   0.68997   0.31933   0.00000  Uiso   1.00
C658   C     0.35600   0.70428   0.65107   0.00000  Uiso   1.00
C659   C     0.34099   0.74374   0.59319   0.00000  Uiso   1.00
C660   C     0.33325   0.77519   0.71272   0.00000  Uiso   1.00
C661   C     0.31969   0.80873   0.63245   0.00000  Uiso   1.00
C662   C     0.33580   0.67028   0.58315   0.00000  Uiso   1.00
C663   C     0.32372   0.63996   0.69422   0.00000  Uiso   1.00
C664   C     0.30579   0.61166   0.60551   0.00000  Uiso   1.00
C665   C     0.38414   0.70131   0.53356   0.00000  Uiso   1.00
C666   C     0.41269   0.69708   0.60294   0.00000  Uiso   1.00
C667   C     0.43546   0.69489   0.47247   0.00000  Uiso   1.00
H668   H     0.34129   0.70945   0.14586   0.00000  Uiso   1.00
H669   H     0.31746   0.78073   0.17063   0.00000  Uiso   1.00
H670   H     0.30793   0.64552   0.15214   0.00000  Uiso   1.00
H671   H     0.39689   0.70263   0.06087   0.00000  Uiso   1.00
H672   H     0.29352   0.85888   0.28315   0.00000  Uiso   1.00
H673   H     0.27343   0.57377   0.24415   0.00000  Uiso   1.00
H674   H     0.46102   0.69420   0.05169   0.00000  Uiso   1.00
H675   H     0.36038   0.70274   0.80122   0.00000  Uiso   1.00
H676   H     0.33760   0.77366   0.86195   0.00000  Uiso   1.00
H677   H     0.32807   0.63844   0.84346   0.00000  Uiso   1.00
H678   H     0.41703   0.69555   0.75219   0.00000  Uiso   1.00
H679   H     0.30986   0.85314   0.84425   0.00000  Uiso   1.00
H680   H     0.28977   0.56802   0.80525   0.00000  Uiso   1.00
H681   H     0.47736   0.68846   0.61279   0.00000  Uiso   1.00
O682   O     0.28635   0.90277   0.59184   0.00000  Uiso   1.00
O683   O     0.26000   0.52871   0.54066   0.00000  Uiso   1.00
O684   O     0.50611   0.68672   0.28815   0.00000  Uiso   1.00
N685   N     0.30050   0.84780   0.40687   0.00000  Uiso   1.00
N686   N     0.28171   0.58124   0.37041   0.00000  Uiso   1.00
N687   N     0.45709   0.69382   0.19047   0.00000  Uiso   1.00
N688   N     0.30929   0.84471   0.70879   0.00000  Uiso   1.00
N689   N     0.29050   0.57815   0.67233   0.00000  Uiso   1.00
N690   N     0.46588   0.69073   0.49239   0.00000  Uiso   1.00
C691   C     0.34566   0.20792   0.79601   0.00000  Uiso   1.00
C692   C     0.33537   0.24571   0.90034   0.00000  Uiso   1.00
C693   C     0.32181   0.27921   0.81988   0.00000  Uiso   1.00
C694   C     0.31406   0.31071   0.93925   0.00000  Uiso   1.00
C695   C     0.29720   0.36970   0.07193   0.00000  Uiso   1.00
C696   C     0.33019   0.17225   0.89030   0.00000  Uiso   1.00
C697   C     0.31227   0.14398   0.80139   0.00000  Uiso   1.00
C698   C     0.30016   0.11363   0.91231   0.00000  Uiso   1.00
C699   C     0.27528   0.05855   0.02937   0.00000  Uiso   1.00
C700   C     0.37852   0.20329   0.84070   0.00000  Uiso   1.00
C701   C     0.40125   0.20110   0.71010   0.00000  Uiso   1.00
C702   C     0.42983   0.19687   0.77927   0.00000  Uiso   1.00
C703   C     0.47999   0.18997   0.81933   0.00000  Uiso   1.00
C704   C     0.35600   0.20428   0.15107   0.00000  Uiso   1.00
C705   C     0.34099   0.24374   0.09319   0.00000  Uiso   1.00
C706   C     0.33325   0.27519   0.21272   0.00000  Uiso   1.00
C707   C     0.31969   0.30873   0.13245   0.00000  Uiso   1.00
C708   C     0.33580   0.17028   0.08315   0.00000  Uiso   1.00
C709   C     0.32372   0.13996   0.19422   0.00000  Uiso   1.00
C710   C     0.30579   0.11166   0.10551   0.00000  Uiso   1.00
C711   C     0.38414   0.20131   0.03356   0.00000  Uiso   1.00
C712   C     0.41269   0.19708   0.10294   0.00000  Uiso   1.00
C713   C     0.43546   0.19489   0.97247   0.00000  Uiso   1.00
H714   H     0.34129   0.20945   0.64586   0.00000  Uiso   1.00
H715   H     0.31746   0.28073   0.67063   0.00000  Uiso   1.00
H716   H     0.30793   0.14552   0.65214   0.00000  Uiso   1.00
H717   H     0.39689   0.20263   0.56087   0.00000  Uiso   1.00
H718   H     0.29352   0.35888   0.78315   0.00000  Uiso   1.00
H719   H     0.27343   0.07377   0.74415   0.00000  Uiso   1.00
H720   H     0.46102   0.19420   0.55169   0.00000  Uiso   1.00
H721   H     0.36038   0.20274   0.30122   0.00000  Uiso   1.00
H722   H     0.33760   0.27366   0.36195   0.00000  Uiso   1.00
H723   H     0.32807   0.13844   0.34346   0.00000  Uiso   1.00
H724   H     0.41703   0.19555   0.25219   0.00000  Uiso   1.00
H725   H     0.30986   0.35314   0.34425   0.00000  Uiso   1.00
H726   H     0.28977   0.06802   0.30525   0.00000  Uiso   1.00
H727   H     0.47736   0.18846   0.11279   0.00000  Uiso   1.00
O728   O     0.28635   0.40277   0.09184   0.00000  Uiso   1.00
O729   O     0.26000   0.02871   0.04066   0.00000  Uiso   1.00
O730   O     0.50611   0.18672   0.78815   0.00000  Uiso   1.00
N731   N     0.30050   0.34780   0.90687   0.00000  Uiso   1.00
N732   N     0.28171   0.08124   0.87041   0.00000  Uiso   1.00
N733   N     0.45709   0.19382   0.69047   0.00000  Uiso   1.00
N734   N     0.30929   0.34471   0.20879   0.00000  Uiso   1.00
N735   N     0.29050   0.07815   0.17233   0.00000  Uiso   1.00
N736   N     0.46588   0.19073   0.99239   0.00000  Uiso   1.00
