data_job_05134
_audit_creation_date              2018-12-19
_audit_creation_method            'Materials Studio'
_symmetry_space_group_name_H-M    'P1'
_symmetry_Int_Tables_number       1
_symmetry_cell_setting            triclinic
loop_
_symmetry_equiv_pos_as_xyz
  x,y,z
_cell_length_a                    24.4961
_cell_length_b                    26.2084
_cell_length_c                    15.6484
_cell_angle_alpha                 90.0000
_cell_angle_beta                  90.0000
_cell_angle_gamma                 90.0000
loop_
_atom_site_label
_atom_site_type_symbol
_atom_site_fract_x
_atom_site_fract_y
_atom_site_fract_z
_atom_site_U_iso_or_equiv
_atom_site_adp_type
_atom_site_occupancy
C1     C     0.19460   0.84242   0.86762   0.00000  Uiso   1.00
C2     C     0.14598   0.86932   0.90855   0.00000  Uiso   1.00
C3     C     0.14231   0.88442   0.99335   0.00000  Uiso   1.00
C4     C     0.09440   0.90847   0.01836   0.00000  Uiso   1.00
C5     C     0.02539   0.94891   0.09070   0.00000  Uiso   1.00
C6     C     0.17224   0.79320   0.82921   0.00000  Uiso   1.00
C7     C     0.19066   0.74430   0.84730   0.00000  Uiso   1.00
C8     C     0.16486   0.70427   0.80551   0.00000  Uiso   1.00
C9     C     0.13665   0.62653   0.75463   0.00000  Uiso   1.00
C10    C     0.21173   0.87560   0.79221   0.00000  Uiso   1.00
C11    C     0.26336   0.89598   0.77917   0.00000  Uiso   1.00
C12    C     0.27081   0.92532   0.70622   0.00000  Uiso   1.00
C13    C     0.30392   0.97552   0.59789   0.00000  Uiso   1.00
C14    C     0.11604   0.85828   0.76123   0.00000  Uiso   1.00
C15    C     0.10331   0.87793   0.85075   0.00000  Uiso   1.00
C16    C     0.05540   0.90197   0.87564   0.00000  Uiso   1.00
C17    C     0.05165   0.91710   0.96047   0.00000  Uiso   1.00
C18    C     0.12957   0.80181   0.77142   0.00000  Uiso   1.00
C19    C     0.10375   0.76184   0.72959   0.00000  Uiso   1.00
C20    C     0.12212   0.71290   0.74761   0.00000  Uiso   1.00
C21    C     0.16906   0.88422   0.73441   0.00000  Uiso   1.00
C22    C     0.17644   0.91352   0.66146   0.00000  Uiso   1.00
C23    C     0.22807   0.93394   0.64832   0.00000  Uiso   1.00
H24    H     0.22781   0.83572   0.91262   0.00000  Uiso   1.00
H25    H     0.17533   0.87775   0.03806   0.00000  Uiso   1.00
H26    H     0.22368   0.73765   0.89202   0.00000  Uiso   1.00
H27    H     0.29637   0.88931   0.82391   0.00000  Uiso   1.00
H28    H     0.09833   0.92813   0.15166   0.00000  Uiso   1.00
H29    H     0.20028   0.63273   0.84371   0.00000  Uiso   1.00
H30    H     0.35356   0.95252   0.70008   0.00000  Uiso   1.00
H31    H     0.08282   0.86498   0.71623   0.00000  Uiso   1.00
H32    H     0.02238   0.90862   0.83090   0.00000  Uiso   1.00
H33    H     0.07073   0.76852   0.68486   0.00000  Uiso   1.00
H34    H     0.14342   0.92018   0.61675   0.00000  Uiso   1.00
H35    H     0.97418   0.95319   0.98352   0.00000  Uiso   1.00
H36    H     0.07614   0.65778   0.67557   0.00000  Uiso   1.00
H37    H     0.22941   0.97758   0.53194   0.00000  Uiso   1.00
O38    O     0.99911   0.96883   0.14657   0.00000  Uiso   1.00
O39    O     0.13288   0.58127   0.74254   0.00000  Uiso   1.00
O40    O     0.33396   0.00083   0.55411   0.00000  Uiso   1.00
N41    N     0.07741   0.92805   0.09635   0.00000  Uiso   1.00
N42    N     0.17272   0.65186   0.80844   0.00000  Uiso   1.00
N43    N     0.31603   0.95083   0.67415   0.00000  Uiso   1.00
N44    N     0.01061   0.94153   0.00587   0.00000  Uiso   1.00
N45    N     0.10592   0.66534   0.71797   0.00000  Uiso   1.00
N46    N     0.24923   0.96432   0.58367   0.00000  Uiso   1.00
C47    C     0.14452   0.14889   0.61129   0.00000  Uiso   1.00
C48    C     0.09535   0.12251   0.57103   0.00000  Uiso   1.00
C49    C     0.09073   0.10807   0.48602   0.00000  Uiso   1.00
C50    C     0.04245   0.08442   0.46171   0.00000  Uiso   1.00
C51    C     0.97250   0.04484   0.39027   0.00000  Uiso   1.00
C52    C     0.12282   0.19791   0.65130   0.00000  Uiso   1.00
C53    C     0.14130   0.24686   0.63377   0.00000  Uiso   1.00
C54    C     0.11614   0.28669   0.67705   0.00000  Uiso   1.00
C55    C     0.08887   0.36416   0.73026   0.00000  Uiso   1.00
C56    C     0.16225   0.11507   0.68556   0.00000  Uiso   1.00
C57    C     0.21389   0.09437   0.69687   0.00000  Uiso   1.00
C58    C     0.22194   0.06445   0.76900   0.00000  Uiso   1.00
C59    C     0.25589   0.01329   0.87542   0.00000  Uiso   1.00
C60    C     0.06698   0.13258   0.71931   0.00000  Uiso   1.00
C61    C     0.05323   0.11366   0.62970   0.00000  Uiso   1.00
C62    C     0.00494   0.09002   0.60552   0.00000  Uiso   1.00
C63    C     0.00026   0.07555   0.52049   0.00000  Uiso   1.00
C64    C     0.08070   0.18906   0.70996   0.00000  Uiso   1.00
C65    C     0.05551   0.22882   0.75328   0.00000  Uiso   1.00
C66    C     0.07395   0.27782   0.73582   0.00000  Uiso   1.00
C67    C     0.12013   0.10620   0.74423   0.00000  Uiso   1.00
C68    C     0.12810   0.07632   0.81637   0.00000  Uiso   1.00
C69    C     0.17975   0.05558   0.82778   0.00000  Uiso   1.00
H70    H     0.17731   0.15579   0.56562   0.00000  Uiso   1.00
H71    H     0.12333   0.11494   0.44063   0.00000  Uiso   1.00
H72    H     0.17390   0.25371   0.58837   0.00000  Uiso   1.00
H73    H     0.24648   0.10123   0.65145   0.00000  Uiso   1.00
H74    H     0.04491   0.06575   0.32793   0.00000  Uiso   1.00
H75    H     0.15154   0.35836   0.63947   0.00000  Uiso   1.00
H76    H     0.30459   0.03684   0.77249   0.00000  Uiso   1.00
H77    H     0.03419   0.12568   0.76499   0.00000  Uiso   1.00
H78    H     0.97236   0.08317   0.65094   0.00000  Uiso   1.00
H79    H     0.02292   0.22195   0.79868   0.00000  Uiso   1.00
H80    H     0.09550   0.06947   0.86176   0.00000  Uiso   1.00
H81    H     0.92237   0.03997   0.49862   0.00000  Uiso   1.00
H82    H     0.02901   0.33258   0.81017   0.00000  Uiso   1.00
H83    H     0.18205   0.01106   0.94318   0.00000  Uiso   1.00
O84    O     0.94555   0.02546   0.33465   0.00000  Uiso   1.00
O85    O     0.08545   0.40935   0.74339   0.00000  Uiso   1.00
O86    O     0.28624   0.98751   0.91790   0.00000  Uiso   1.00
N87    N     0.02456   0.06551   0.38376   0.00000  Uiso   1.00
N88    N     0.12425   0.33908   0.67502   0.00000  Uiso   1.00
N89    N     0.26734   0.03850   0.79939   0.00000  Uiso   1.00
N90    N     0.95863   0.05164   0.47560   0.00000  Uiso   1.00
N91    N     0.05831   0.32521   0.76687   0.00000  Uiso   1.00
N92    N     0.20140   0.02462   0.89124   0.00000  Uiso   1.00
C93    C     0.30540   0.15758   0.36762   0.00000  Uiso   1.00
C94    C     0.35402   0.13068   0.40855   0.00000  Uiso   1.00
C95    C     0.35769   0.11558   0.49335   0.00000  Uiso   1.00
C96    C     0.40560   0.09153   0.51836   0.00000  Uiso   1.00
C97    C     0.47461   0.05109   0.59070   0.00000  Uiso   1.00
C98    C     0.32776   0.20680   0.32921   0.00000  Uiso   1.00
C99    C     0.30934   0.25570   0.34730   0.00000  Uiso   1.00
C100   C     0.33514   0.29573   0.30551   0.00000  Uiso   1.00
C101   C     0.36335   0.37347   0.25463   0.00000  Uiso   1.00
C102   C     0.28827   0.12440   0.29221   0.00000  Uiso   1.00
C103   C     0.23664   0.10402   0.27917   0.00000  Uiso   1.00
C104   C     0.22919   0.07468   0.20622   0.00000  Uiso   1.00
C105   C     0.19608   0.02448   0.09789   0.00000  Uiso   1.00
C106   C     0.38396   0.14172   0.26123   0.00000  Uiso   1.00
C107   C     0.39669   0.12207   0.35075   0.00000  Uiso   1.00
C108   C     0.44460   0.09803   0.37564   0.00000  Uiso   1.00
C109   C     0.44835   0.08290   0.46047   0.00000  Uiso   1.00
C110   C     0.37043   0.19819   0.27142   0.00000  Uiso   1.00
C111   C     0.39625   0.23816   0.22959   0.00000  Uiso   1.00
C112   C     0.37788   0.28710   0.24761   0.00000  Uiso   1.00
C113   C     0.33094   0.11578   0.23441   0.00000  Uiso   1.00
C114   C     0.32356   0.08648   0.16146   0.00000  Uiso   1.00
C115   C     0.27193   0.06606   0.14832   0.00000  Uiso   1.00
H116   H     0.27219   0.16428   0.41262   0.00000  Uiso   1.00
H117   H     0.32467   0.12225   0.53806   0.00000  Uiso   1.00
H118   H     0.27632   0.26235   0.39202   0.00000  Uiso   1.00
H119   H     0.20363   0.11069   0.32391   0.00000  Uiso   1.00
H120   H     0.40167   0.07187   0.65166   0.00000  Uiso   1.00
H121   H     0.29972   0.36727   0.34371   0.00000  Uiso   1.00
H122   H     0.14644   0.04748   0.20008   0.00000  Uiso   1.00
H123   H     0.41718   0.13502   0.21623   0.00000  Uiso   1.00
H124   H     0.47762   0.09138   0.33090   0.00000  Uiso   1.00
H125   H     0.42927   0.23148   0.18486   0.00000  Uiso   1.00
H126   H     0.35658   0.07982   0.11675   0.00000  Uiso   1.00
H127   H     0.52582   0.04681   0.48352   0.00000  Uiso   1.00
H128   H     0.42386   0.34222   0.17557   0.00000  Uiso   1.00
H129   H     0.27059   0.02242   0.03194   0.00000  Uiso   1.00
O130   O     0.50089   0.03117   0.64657   0.00000  Uiso   1.00
O131   O     0.36712   0.41873   0.24254   0.00000  Uiso   1.00
O132   O     0.16604   0.99917   0.05411   0.00000  Uiso   1.00
N133   N     0.42259   0.07195   0.59635   0.00000  Uiso   1.00
N134   N     0.32728   0.34814   0.30844   0.00000  Uiso   1.00
N135   N     0.18397   0.04917   0.17415   0.00000  Uiso   1.00
N136   N     0.48939   0.05847   0.50587   0.00000  Uiso   1.00
N137   N     0.39408   0.33466   0.21797   0.00000  Uiso   1.00
N138   N     0.25077   0.03568   0.08367   0.00000  Uiso   1.00
C139   C     0.35548   0.85111   0.11129   0.00000  Uiso   1.00
C140   C     0.40465   0.87749   0.07103   0.00000  Uiso   1.00
C141   C     0.40927   0.89193   0.98602   0.00000  Uiso   1.00
C142   C     0.45755   0.91558   0.96171   0.00000  Uiso   1.00
C143   C     0.52750   0.95516   0.89027   0.00000  Uiso   1.00
C144   C     0.37718   0.80209   0.15130   0.00000  Uiso   1.00
C145   C     0.35870   0.75314   0.13377   0.00000  Uiso   1.00
C146   C     0.38386   0.71331   0.17705   0.00000  Uiso   1.00
C147   C     0.41113   0.63584   0.23026   0.00000  Uiso   1.00
C148   C     0.33775   0.88493   0.18556   0.00000  Uiso   1.00
C149   C     0.28611   0.90563   0.19687   0.00000  Uiso   1.00
C150   C     0.27806   0.93555   0.26900   0.00000  Uiso   1.00
C151   C     0.24411   0.98671   0.37542   0.00000  Uiso   1.00
C152   C     0.43302   0.86742   0.21931   0.00000  Uiso   1.00
C153   C     0.44677   0.88634   0.12970   0.00000  Uiso   1.00
C154   C     0.49506   0.90998   0.10552   0.00000  Uiso   1.00
C155   C     0.49974   0.92445   0.02049   0.00000  Uiso   1.00
C156   C     0.41930   0.81094   0.20996   0.00000  Uiso   1.00
C157   C     0.44449   0.77118   0.25328   0.00000  Uiso   1.00
C158   C     0.42605   0.72218   0.23582   0.00000  Uiso   1.00
C159   C     0.37987   0.89380   0.24423   0.00000  Uiso   1.00
C160   C     0.37190   0.92368   0.31637   0.00000  Uiso   1.00
C161   C     0.32025   0.94442   0.32778   0.00000  Uiso   1.00
H162   H     0.32269   0.84421   0.06562   0.00000  Uiso   1.00
H163   H     0.37667   0.88506   0.94063   0.00000  Uiso   1.00
H164   H     0.32610   0.74629   0.08837   0.00000  Uiso   1.00
H165   H     0.25352   0.89877   0.15145   0.00000  Uiso   1.00
H166   H     0.45509   0.93425   0.82793   0.00000  Uiso   1.00
H167   H     0.34846   0.64164   0.13947   0.00000  Uiso   1.00
H168   H     0.19541   0.96316   0.27249   0.00000  Uiso   1.00
H169   H     0.46581   0.87432   0.26499   0.00000  Uiso   1.00
H170   H     0.52764   0.91683   0.15094   0.00000  Uiso   1.00
H171   H     0.47708   0.77805   0.29868   0.00000  Uiso   1.00
H172   H     0.40450   0.93053   0.36176   0.00000  Uiso   1.00
H173   H     0.57763   0.96003   0.99862   0.00000  Uiso   1.00
H174   H     0.47099   0.66742   0.31017   0.00000  Uiso   1.00
H175   H     0.31795   0.98894   0.44318   0.00000  Uiso   1.00
O176   O     0.55445   0.97454   0.83465   0.00000  Uiso   1.00
O177   O     0.41455   0.59065   0.24339   0.00000  Uiso   1.00
O178   O     0.21376   0.01249   0.41790   0.00000  Uiso   1.00
N179   N     0.47544   0.93449   0.88376   0.00000  Uiso   1.00
N180   N     0.37575   0.66092   0.17502   0.00000  Uiso   1.00
N181   N     0.23266   0.96150   0.29939   0.00000  Uiso   1.00
N182   N     0.54137   0.94836   0.97560   0.00000  Uiso   1.00
N183   N     0.44169   0.67479   0.26687   0.00000  Uiso   1.00
N184   N     0.29860   0.97538   0.39124   0.00000  Uiso   1.00
C185   C     0.80540   0.34242   0.63238   0.00000  Uiso   1.00
C186   C     0.85402   0.36932   0.59145   0.00000  Uiso   1.00
C187   C     0.85769   0.38442   0.50665   0.00000  Uiso   1.00
C188   C     0.90560   0.40847   0.48164   0.00000  Uiso   1.00
C189   C     0.97461   0.44891   0.40930   0.00000  Uiso   1.00
C190   C     0.82776   0.29320   0.67079   0.00000  Uiso   1.00
C191   C     0.80934   0.24430   0.65270   0.00000  Uiso   1.00
C192   C     0.83514   0.20427   0.69449   0.00000  Uiso   1.00
C193   C     0.86335   0.12653   0.74537   0.00000  Uiso   1.00
C194   C     0.78827   0.37560   0.70779   0.00000  Uiso   1.00
C195   C     0.73664   0.39598   0.72083   0.00000  Uiso   1.00
C196   C     0.72919   0.42532   0.79378   0.00000  Uiso   1.00
C197   C     0.69608   0.47552   0.90211   0.00000  Uiso   1.00
C198   C     0.88396   0.35828   0.73877   0.00000  Uiso   1.00
C199   C     0.89669   0.37793   0.64925   0.00000  Uiso   1.00
C200   C     0.94460   0.40197   0.62436   0.00000  Uiso   1.00
C201   C     0.94835   0.41710   0.53953   0.00000  Uiso   1.00
C202   C     0.87043   0.30181   0.72858   0.00000  Uiso   1.00
C203   C     0.89625   0.26184   0.77041   0.00000  Uiso   1.00
C204   C     0.87788   0.21290   0.75239   0.00000  Uiso   1.00
C205   C     0.83094   0.38422   0.76559   0.00000  Uiso   1.00
C206   C     0.82356   0.41352   0.83854   0.00000  Uiso   1.00
C207   C     0.77193   0.43394   0.85168   0.00000  Uiso   1.00
H208   H     0.77219   0.33572   0.58738   0.00000  Uiso   1.00
H209   H     0.82467   0.37775   0.46194   0.00000  Uiso   1.00
H210   H     0.77632   0.23765   0.60798   0.00000  Uiso   1.00
H211   H     0.70363   0.38931   0.67609   0.00000  Uiso   1.00
H212   H     0.90167   0.42813   0.34834   0.00000  Uiso   1.00
H213   H     0.79972   0.13273   0.65629   0.00000  Uiso   1.00
H214   H     0.64644   0.45252   0.79992   0.00000  Uiso   1.00
H215   H     0.91718   0.36498   0.78377   0.00000  Uiso   1.00
H216   H     0.97762   0.40862   0.66910   0.00000  Uiso   1.00
H217   H     0.92927   0.26852   0.81514   0.00000  Uiso   1.00
H218   H     0.85658   0.42018   0.88325   0.00000  Uiso   1.00
H219   H     0.02582   0.45319   0.51648   0.00000  Uiso   1.00
H220   H     0.92386   0.15778   0.82443   0.00000  Uiso   1.00
H221   H     0.77059   0.47758   0.96806   0.00000  Uiso   1.00
O222   O     0.00089   0.46883   0.35343   0.00000  Uiso   1.00
O223   O     0.86712   0.08127   0.75746   0.00000  Uiso   1.00
O224   O     0.66604   0.50083   0.94589   0.00000  Uiso   1.00
N225   N     0.92259   0.42805   0.40365   0.00000  Uiso   1.00
N226   N     0.82728   0.15186   0.69156   0.00000  Uiso   1.00
N227   N     0.68397   0.45083   0.82585   0.00000  Uiso   1.00
N228   N     0.98939   0.44153   0.49413   0.00000  Uiso   1.00
N229   N     0.89408   0.16534   0.78203   0.00000  Uiso   1.00
N230   N     0.75077   0.46432   0.91633   0.00000  Uiso   1.00
C231   C     0.85548   0.64889   0.88871   0.00000  Uiso   1.00
C232   C     0.90465   0.62251   0.92897   0.00000  Uiso   1.00
C233   C     0.90927   0.60807   0.01398   0.00000  Uiso   1.00
C234   C     0.95755   0.58442   0.03829   0.00000  Uiso   1.00
C235   C     0.02750   0.54484   0.10973   0.00000  Uiso   1.00
C236   C     0.87718   0.69791   0.84870   0.00000  Uiso   1.00
C237   C     0.85870   0.74686   0.86623   0.00000  Uiso   1.00
C238   C     0.88386   0.78669   0.82295   0.00000  Uiso   1.00
C239   C     0.91113   0.86416   0.76974   0.00000  Uiso   1.00
C240   C     0.83775   0.61507   0.81444   0.00000  Uiso   1.00
C241   C     0.78611   0.59437   0.80313   0.00000  Uiso   1.00
C242   C     0.77806   0.56445   0.73100   0.00000  Uiso   1.00
C243   C     0.74411   0.51329   0.62458   0.00000  Uiso   1.00
C244   C     0.93302   0.63258   0.78069   0.00000  Uiso   1.00
C245   C     0.94677   0.61366   0.87030   0.00000  Uiso   1.00
C246   C     0.99506   0.59002   0.89448   0.00000  Uiso   1.00
C247   C     0.99974   0.57555   0.97951   0.00000  Uiso   1.00
C248   C     0.91930   0.68906   0.79004   0.00000  Uiso   1.00
C249   C     0.94449   0.72882   0.74672   0.00000  Uiso   1.00
C250   C     0.92605   0.77782   0.76418   0.00000  Uiso   1.00
C251   C     0.87987   0.60620   0.75577   0.00000  Uiso   1.00
C252   C     0.87190   0.57632   0.68363   0.00000  Uiso   1.00
C253   C     0.82025   0.55558   0.67222   0.00000  Uiso   1.00
H254   H     0.82269   0.65579   0.93438   0.00000  Uiso   1.00
H255   H     0.87667   0.61494   0.05937   0.00000  Uiso   1.00
H256   H     0.82610   0.75371   0.91163   0.00000  Uiso   1.00
H257   H     0.75352   0.60123   0.84855   0.00000  Uiso   1.00
H258   H     0.95509   0.56575   0.17207   0.00000  Uiso   1.00
H259   H     0.84846   0.85836   0.86053   0.00000  Uiso   1.00
H260   H     0.69541   0.53684   0.72751   0.00000  Uiso   1.00
H261   H     0.96581   0.62568   0.73501   0.00000  Uiso   1.00
H262   H     0.02764   0.58317   0.84906   0.00000  Uiso   1.00
H263   H     0.97708   0.72195   0.70132   0.00000  Uiso   1.00
H264   H     0.90450   0.56947   0.63824   0.00000  Uiso   1.00
H265   H     0.07763   0.53997   0.00138   0.00000  Uiso   1.00
H266   H     0.97099   0.83258   0.68983   0.00000  Uiso   1.00
H267   H     0.81795   0.51106   0.55682   0.00000  Uiso   1.00
O268   O     0.05445   0.52546   0.16535   0.00000  Uiso   1.00
O269   O     0.91455   0.90935   0.75661   0.00000  Uiso   1.00
O270   O     0.71376   0.48751   0.58210   0.00000  Uiso   1.00
N271   N     0.97544   0.56551   0.11624   0.00000  Uiso   1.00
N272   N     0.87575   0.83908   0.82498   0.00000  Uiso   1.00
N273   N     0.73266   0.53850   0.70061   0.00000  Uiso   1.00
N274   N     0.04137   0.55164   0.02440   0.00000  Uiso   1.00
N275   N     0.94169   0.82521   0.73313   0.00000  Uiso   1.00
N276   N     0.79860   0.52462   0.60876   0.00000  Uiso   1.00
C277   C     0.69460   0.65758   0.13238   0.00000  Uiso   1.00
C278   C     0.64598   0.63068   0.09145   0.00000  Uiso   1.00
C279   C     0.64231   0.61558   0.00665   0.00000  Uiso   1.00
C280   C     0.59440   0.59153   0.98164   0.00000  Uiso   1.00
C281   C     0.52539   0.55109   0.90930   0.00000  Uiso   1.00
C282   C     0.67224   0.70680   0.17079   0.00000  Uiso   1.00
C283   C     0.69066   0.75570   0.15270   0.00000  Uiso   1.00
C284   C     0.66486   0.79573   0.19449   0.00000  Uiso   1.00
C285   C     0.63665   0.87347   0.24537   0.00000  Uiso   1.00
C286   C     0.71173   0.62440   0.20779   0.00000  Uiso   1.00
C287   C     0.76336   0.60402   0.22083   0.00000  Uiso   1.00
C288   C     0.77081   0.57468   0.29378   0.00000  Uiso   1.00
C289   C     0.80392   0.52448   0.40211   0.00000  Uiso   1.00
C290   C     0.61604   0.64172   0.23877   0.00000  Uiso   1.00
C291   C     0.60331   0.62207   0.14925   0.00000  Uiso   1.00
C292   C     0.55540   0.59803   0.12436   0.00000  Uiso   1.00
C293   C     0.55165   0.58290   0.03953   0.00000  Uiso   1.00
C294   C     0.62957   0.69819   0.22858   0.00000  Uiso   1.00
C295   C     0.60375   0.73816   0.27041   0.00000  Uiso   1.00
C296   C     0.62212   0.78710   0.25239   0.00000  Uiso   1.00
C297   C     0.66906   0.61578   0.26559   0.00000  Uiso   1.00
C298   C     0.67644   0.58648   0.33854   0.00000  Uiso   1.00
C299   C     0.72807   0.56606   0.35168   0.00000  Uiso   1.00
H300   H     0.72781   0.66428   0.08738   0.00000  Uiso   1.00
H301   H     0.67533   0.62225   0.96194   0.00000  Uiso   1.00
H302   H     0.72368   0.76235   0.10798   0.00000  Uiso   1.00
H303   H     0.79637   0.61069   0.17609   0.00000  Uiso   1.00
H304   H     0.59833   0.57187   0.84834   0.00000  Uiso   1.00
H305   H     0.70028   0.86727   0.15629   0.00000  Uiso   1.00
H306   H     0.85356   0.54748   0.29992   0.00000  Uiso   1.00
H307   H     0.58282   0.63502   0.28377   0.00000  Uiso   1.00
H308   H     0.52238   0.59138   0.16910   0.00000  Uiso   1.00
H309   H     0.57073   0.73148   0.31514   0.00000  Uiso   1.00
H310   H     0.64342   0.57982   0.38325   0.00000  Uiso   1.00
H311   H     0.47418   0.54681   0.01648   0.00000  Uiso   1.00
H312   H     0.57614   0.84222   0.32443   0.00000  Uiso   1.00
H313   H     0.72941   0.52242   0.46806   0.00000  Uiso   1.00
O314   O     0.49911   0.53117   0.85343   0.00000  Uiso   1.00
O315   O     0.63288   0.91873   0.25746   0.00000  Uiso   1.00
O316   O     0.83396   0.49917   0.44589   0.00000  Uiso   1.00
N317   N     0.57741   0.57195   0.90365   0.00000  Uiso   1.00
N318   N     0.67272   0.84814   0.19156   0.00000  Uiso   1.00
N319   N     0.81603   0.54917   0.32585   0.00000  Uiso   1.00
N320   N     0.51061   0.55847   0.99413   0.00000  Uiso   1.00
N321   N     0.60592   0.83466   0.28203   0.00000  Uiso   1.00
N322   N     0.74923   0.53568   0.41633   0.00000  Uiso   1.00
C323   C     0.64452   0.35111   0.38871   0.00000  Uiso   1.00
C324   C     0.59535   0.37749   0.42897   0.00000  Uiso   1.00
C325   C     0.59073   0.39193   0.51398   0.00000  Uiso   1.00
C326   C     0.54245   0.41558   0.53829   0.00000  Uiso   1.00
C327   C     0.47250   0.45516   0.60973   0.00000  Uiso   1.00
C328   C     0.62282   0.30209   0.34870   0.00000  Uiso   1.00
C329   C     0.64130   0.25314   0.36623   0.00000  Uiso   1.00
C330   C     0.61614   0.21331   0.32295   0.00000  Uiso   1.00
C331   C     0.58887   0.13584   0.26974   0.00000  Uiso   1.00
C332   C     0.66225   0.38493   0.31444   0.00000  Uiso   1.00
C333   C     0.71389   0.40563   0.30313   0.00000  Uiso   1.00
C334   C     0.72194   0.43555   0.23100   0.00000  Uiso   1.00
C335   C     0.75589   0.48671   0.12458   0.00000  Uiso   1.00
C336   C     0.56698   0.36742   0.28069   0.00000  Uiso   1.00
C337   C     0.55323   0.38634   0.37030   0.00000  Uiso   1.00
C338   C     0.50494   0.40998   0.39448   0.00000  Uiso   1.00
C339   C     0.50026   0.42445   0.47951   0.00000  Uiso   1.00
C340   C     0.58070   0.31094   0.29004   0.00000  Uiso   1.00
C341   C     0.55551   0.27118   0.24672   0.00000  Uiso   1.00
C342   C     0.57395   0.22218   0.26418   0.00000  Uiso   1.00
C343   C     0.62013   0.39380   0.25577   0.00000  Uiso   1.00
C344   C     0.62810   0.42368   0.18363   0.00000  Uiso   1.00
C345   C     0.67975   0.44442   0.17222   0.00000  Uiso   1.00
H346   H     0.67731   0.34421   0.43438   0.00000  Uiso   1.00
H347   H     0.62333   0.38506   0.55937   0.00000  Uiso   1.00
H348   H     0.67390   0.24629   0.41163   0.00000  Uiso   1.00
H349   H     0.74648   0.39877   0.34855   0.00000  Uiso   1.00
H350   H     0.54491   0.43425   0.67207   0.00000  Uiso   1.00
H351   H     0.65154   0.14164   0.36053   0.00000  Uiso   1.00
H352   H     0.80459   0.46316   0.22751   0.00000  Uiso   1.00
H353   H     0.53419   0.37432   0.23501   0.00000  Uiso   1.00
H354   H     0.47236   0.41683   0.34906   0.00000  Uiso   1.00
H355   H     0.52292   0.27805   0.20132   0.00000  Uiso   1.00
H356   H     0.59550   0.43053   0.13824   0.00000  Uiso   1.00
H357   H     0.42237   0.46003   0.50138   0.00000  Uiso   1.00
H358   H     0.52901   0.16742   0.18983   0.00000  Uiso   1.00
H359   H     0.68205   0.48894   0.05682   0.00000  Uiso   1.00
O360   O     0.44555   0.47454   0.66535   0.00000  Uiso   1.00
O361   O     0.58545   0.09065   0.25661   0.00000  Uiso   1.00
O362   O     0.78624   0.51249   0.08210   0.00000  Uiso   1.00
N363   N     0.52456   0.43449   0.61624   0.00000  Uiso   1.00
N364   N     0.62425   0.16092   0.32498   0.00000  Uiso   1.00
N365   N     0.76734   0.46150   0.20061   0.00000  Uiso   1.00
N366   N     0.45863   0.44836   0.52440   0.00000  Uiso   1.00
N367   N     0.55831   0.17479   0.23313   0.00000  Uiso   1.00
N368   N     0.70140   0.47538   0.10876   0.00000  Uiso   1.00
C369   C     0.80540   0.15758   0.13238   0.00000  Uiso   1.00
C370   C     0.85402   0.13068   0.09145   0.00000  Uiso   1.00
C371   C     0.85769   0.11558   0.00665   0.00000  Uiso   1.00
C372   C     0.90560   0.09153   0.98164   0.00000  Uiso   1.00
C373   C     0.97461   0.05109   0.90930   0.00000  Uiso   1.00
C374   C     0.82776   0.20680   0.17079   0.00000  Uiso   1.00
C375   C     0.80934   0.25570   0.15270   0.00000  Uiso   1.00
C376   C     0.83514   0.29573   0.19449   0.00000  Uiso   1.00
C377   C     0.86335   0.37347   0.24537   0.00000  Uiso   1.00
C378   C     0.78827   0.12440   0.20779   0.00000  Uiso   1.00
C379   C     0.73664   0.10402   0.22083   0.00000  Uiso   1.00
C380   C     0.72919   0.07468   0.29378   0.00000  Uiso   1.00
C381   C     0.69608   0.02448   0.40211   0.00000  Uiso   1.00
C382   C     0.88396   0.14172   0.23877   0.00000  Uiso   1.00
C383   C     0.89669   0.12207   0.14925   0.00000  Uiso   1.00
C384   C     0.94460   0.09803   0.12436   0.00000  Uiso   1.00
C385   C     0.94835   0.08290   0.03953   0.00000  Uiso   1.00
C386   C     0.87043   0.19819   0.22858   0.00000  Uiso   1.00
C387   C     0.89625   0.23816   0.27041   0.00000  Uiso   1.00
C388   C     0.87788   0.28710   0.25239   0.00000  Uiso   1.00
C389   C     0.83094   0.11578   0.26559   0.00000  Uiso   1.00
C390   C     0.82356   0.08648   0.33854   0.00000  Uiso   1.00
C391   C     0.77193   0.06606   0.35168   0.00000  Uiso   1.00
H392   H     0.77219   0.16428   0.08738   0.00000  Uiso   1.00
H393   H     0.82467   0.12225   0.96194   0.00000  Uiso   1.00
H394   H     0.77632   0.26235   0.10798   0.00000  Uiso   1.00
H395   H     0.70363   0.11069   0.17609   0.00000  Uiso   1.00
H396   H     0.90167   0.07187   0.84834   0.00000  Uiso   1.00
H397   H     0.79972   0.36727   0.15629   0.00000  Uiso   1.00
H398   H     0.64644   0.04748   0.29992   0.00000  Uiso   1.00
H399   H     0.91718   0.13502   0.28377   0.00000  Uiso   1.00
H400   H     0.97762   0.09138   0.16910   0.00000  Uiso   1.00
H401   H     0.92927   0.23148   0.31514   0.00000  Uiso   1.00
H402   H     0.85658   0.07982   0.38325   0.00000  Uiso   1.00
H403   H     0.02582   0.04681   0.01648   0.00000  Uiso   1.00
H404   H     0.92386   0.34222   0.32443   0.00000  Uiso   1.00
H405   H     0.77059   0.02242   0.46806   0.00000  Uiso   1.00
O406   O     0.00089   0.03117   0.85343   0.00000  Uiso   1.00
O407   O     0.86712   0.41873   0.25746   0.00000  Uiso   1.00
O408   O     0.66604   0.99917   0.44589   0.00000  Uiso   1.00
N409   N     0.92259   0.07195   0.90365   0.00000  Uiso   1.00
N410   N     0.82728   0.34814   0.19156   0.00000  Uiso   1.00
N411   N     0.68397   0.04917   0.32585   0.00000  Uiso   1.00
N412   N     0.98939   0.05847   0.99413   0.00000  Uiso   1.00
N413   N     0.89408   0.33466   0.28203   0.00000  Uiso   1.00
N414   N     0.75077   0.03568   0.41633   0.00000  Uiso   1.00
C415   C     0.85548   0.85111   0.38871   0.00000  Uiso   1.00
C416   C     0.90465   0.87749   0.42897   0.00000  Uiso   1.00
C417   C     0.90927   0.89193   0.51398   0.00000  Uiso   1.00
C418   C     0.95755   0.91558   0.53829   0.00000  Uiso   1.00
C419   C     0.02750   0.95516   0.60973   0.00000  Uiso   1.00
C420   C     0.87718   0.80209   0.34870   0.00000  Uiso   1.00
C421   C     0.85870   0.75314   0.36623   0.00000  Uiso   1.00
C422   C     0.88386   0.71331   0.32295   0.00000  Uiso   1.00
C423   C     0.91113   0.63584   0.26974   0.00000  Uiso   1.00
C424   C     0.83775   0.88493   0.31444   0.00000  Uiso   1.00
C425   C     0.78611   0.90563   0.30313   0.00000  Uiso   1.00
C426   C     0.77806   0.93555   0.23100   0.00000  Uiso   1.00
C427   C     0.74411   0.98671   0.12458   0.00000  Uiso   1.00
C428   C     0.93302   0.86742   0.28069   0.00000  Uiso   1.00
C429   C     0.94677   0.88634   0.37030   0.00000  Uiso   1.00
C430   C     0.99506   0.90998   0.39448   0.00000  Uiso   1.00
C431   C     0.99974   0.92445   0.47951   0.00000  Uiso   1.00
C432   C     0.91930   0.81094   0.29004   0.00000  Uiso   1.00
C433   C     0.94449   0.77118   0.24672   0.00000  Uiso   1.00
C434   C     0.92605   0.72218   0.26418   0.00000  Uiso   1.00
C435   C     0.87987   0.89380   0.25577   0.00000  Uiso   1.00
C436   C     0.87190   0.92368   0.18363   0.00000  Uiso   1.00
C437   C     0.82025   0.94442   0.17222   0.00000  Uiso   1.00
H438   H     0.82269   0.84421   0.43438   0.00000  Uiso   1.00
H439   H     0.87667   0.88506   0.55937   0.00000  Uiso   1.00
H440   H     0.82610   0.74629   0.41163   0.00000  Uiso   1.00
H441   H     0.75352   0.89877   0.34855   0.00000  Uiso   1.00
H442   H     0.95509   0.93425   0.67207   0.00000  Uiso   1.00
H443   H     0.84846   0.64164   0.36053   0.00000  Uiso   1.00
H444   H     0.69541   0.96316   0.22751   0.00000  Uiso   1.00
H445   H     0.96581   0.87432   0.23501   0.00000  Uiso   1.00
H446   H     0.02764   0.91683   0.34906   0.00000  Uiso   1.00
H447   H     0.97708   0.77805   0.20132   0.00000  Uiso   1.00
H448   H     0.90450   0.93053   0.13824   0.00000  Uiso   1.00
H449   H     0.07763   0.96003   0.50138   0.00000  Uiso   1.00
H450   H     0.97099   0.66742   0.18983   0.00000  Uiso   1.00
H451   H     0.81795   0.98894   0.05682   0.00000  Uiso   1.00
O452   O     0.05445   0.97454   0.66535   0.00000  Uiso   1.00
O453   O     0.91455   0.59065   0.25661   0.00000  Uiso   1.00
O454   O     0.71376   0.01249   0.08210   0.00000  Uiso   1.00
N455   N     0.97544   0.93449   0.61624   0.00000  Uiso   1.00
N456   N     0.87575   0.66092   0.32498   0.00000  Uiso   1.00
N457   N     0.73266   0.96150   0.20061   0.00000  Uiso   1.00
N458   N     0.04137   0.94836   0.52440   0.00000  Uiso   1.00
N459   N     0.94169   0.67479   0.23313   0.00000  Uiso   1.00
N460   N     0.79860   0.97538   0.10876   0.00000  Uiso   1.00
C461   C     0.69460   0.84242   0.63238   0.00000  Uiso   1.00
C462   C     0.64598   0.86932   0.59145   0.00000  Uiso   1.00
C463   C     0.64231   0.88442   0.50665   0.00000  Uiso   1.00
C464   C     0.59440   0.90847   0.48164   0.00000  Uiso   1.00
C465   C     0.52539   0.94891   0.40930   0.00000  Uiso   1.00
C466   C     0.67224   0.79320   0.67079   0.00000  Uiso   1.00
C467   C     0.69066   0.74430   0.65270   0.00000  Uiso   1.00
C468   C     0.66486   0.70427   0.69449   0.00000  Uiso   1.00
C469   C     0.63665   0.62653   0.74537   0.00000  Uiso   1.00
C470   C     0.71173   0.87560   0.70779   0.00000  Uiso   1.00
C471   C     0.76336   0.89598   0.72083   0.00000  Uiso   1.00
C472   C     0.77081   0.92532   0.79378   0.00000  Uiso   1.00
C473   C     0.80392   0.97552   0.90211   0.00000  Uiso   1.00
C474   C     0.61604   0.85828   0.73877   0.00000  Uiso   1.00
C475   C     0.60331   0.87793   0.64925   0.00000  Uiso   1.00
C476   C     0.55540   0.90197   0.62436   0.00000  Uiso   1.00
C477   C     0.55165   0.91710   0.53953   0.00000  Uiso   1.00
C478   C     0.62957   0.80181   0.72858   0.00000  Uiso   1.00
C479   C     0.60375   0.76184   0.77041   0.00000  Uiso   1.00
C480   C     0.62212   0.71290   0.75239   0.00000  Uiso   1.00
C481   C     0.66906   0.88422   0.76559   0.00000  Uiso   1.00
C482   C     0.67644   0.91352   0.83854   0.00000  Uiso   1.00
C483   C     0.72807   0.93394   0.85168   0.00000  Uiso   1.00
H484   H     0.72781   0.83572   0.58738   0.00000  Uiso   1.00
H485   H     0.67533   0.87775   0.46194   0.00000  Uiso   1.00
H486   H     0.72368   0.73765   0.60798   0.00000  Uiso   1.00
H487   H     0.79637   0.88931   0.67609   0.00000  Uiso   1.00
H488   H     0.59833   0.92813   0.34834   0.00000  Uiso   1.00
H489   H     0.70028   0.63273   0.65629   0.00000  Uiso   1.00
H490   H     0.85356   0.95252   0.79992   0.00000  Uiso   1.00
H491   H     0.58282   0.86498   0.78377   0.00000  Uiso   1.00
H492   H     0.52238   0.90862   0.66910   0.00000  Uiso   1.00
H493   H     0.57073   0.76852   0.81514   0.00000  Uiso   1.00
H494   H     0.64342   0.92018   0.88325   0.00000  Uiso   1.00
H495   H     0.47418   0.95319   0.51648   0.00000  Uiso   1.00
H496   H     0.57614   0.65778   0.82443   0.00000  Uiso   1.00
H497   H     0.72941   0.97758   0.96806   0.00000  Uiso   1.00
O498   O     0.49911   0.96883   0.35343   0.00000  Uiso   1.00
O499   O     0.63288   0.58127   0.75746   0.00000  Uiso   1.00
O500   O     0.83396   0.00083   0.94589   0.00000  Uiso   1.00
N501   N     0.57741   0.92805   0.40365   0.00000  Uiso   1.00
N502   N     0.67272   0.65186   0.69156   0.00000  Uiso   1.00
N503   N     0.81603   0.95083   0.82585   0.00000  Uiso   1.00
N504   N     0.51061   0.94153   0.49413   0.00000  Uiso   1.00
N505   N     0.60592   0.66534   0.78203   0.00000  Uiso   1.00
N506   N     0.74923   0.96432   0.91633   0.00000  Uiso   1.00
C507   C     0.64452   0.14889   0.88871   0.00000  Uiso   1.00
C508   C     0.59535   0.12251   0.92897   0.00000  Uiso   1.00
C509   C     0.59073   0.10807   0.01398   0.00000  Uiso   1.00
C510   C     0.54245   0.08442   0.03829   0.00000  Uiso   1.00
C511   C     0.47250   0.04484   0.10973   0.00000  Uiso   1.00
C512   C     0.62282   0.19791   0.84870   0.00000  Uiso   1.00
C513   C     0.64130   0.24686   0.86623   0.00000  Uiso   1.00
C514   C     0.61614   0.28669   0.82295   0.00000  Uiso   1.00
C515   C     0.58887   0.36416   0.76974   0.00000  Uiso   1.00
C516   C     0.66225   0.11507   0.81444   0.00000  Uiso   1.00
C517   C     0.71389   0.09437   0.80313   0.00000  Uiso   1.00
C518   C     0.72194   0.06445   0.73100   0.00000  Uiso   1.00
C519   C     0.75589   0.01329   0.62458   0.00000  Uiso   1.00
C520   C     0.56698   0.13258   0.78069   0.00000  Uiso   1.00
C521   C     0.55323   0.11366   0.87030   0.00000  Uiso   1.00
C522   C     0.50494   0.09002   0.89448   0.00000  Uiso   1.00
C523   C     0.50026   0.07555   0.97951   0.00000  Uiso   1.00
C524   C     0.58070   0.18906   0.79004   0.00000  Uiso   1.00
C525   C     0.55551   0.22882   0.74672   0.00000  Uiso   1.00
C526   C     0.57395   0.27782   0.76418   0.00000  Uiso   1.00
C527   C     0.62013   0.10620   0.75577   0.00000  Uiso   1.00
C528   C     0.62810   0.07632   0.68363   0.00000  Uiso   1.00
C529   C     0.67975   0.05558   0.67222   0.00000  Uiso   1.00
H530   H     0.67731   0.15579   0.93438   0.00000  Uiso   1.00
H531   H     0.62333   0.11494   0.05937   0.00000  Uiso   1.00
H532   H     0.67390   0.25371   0.91163   0.00000  Uiso   1.00
H533   H     0.74648   0.10123   0.84855   0.00000  Uiso   1.00
H534   H     0.54491   0.06575   0.17207   0.00000  Uiso   1.00
H535   H     0.65154   0.35836   0.86053   0.00000  Uiso   1.00
H536   H     0.80459   0.03684   0.72751   0.00000  Uiso   1.00
H537   H     0.53419   0.12568   0.73501   0.00000  Uiso   1.00
H538   H     0.47236   0.08317   0.84906   0.00000  Uiso   1.00
H539   H     0.52292   0.22195   0.70132   0.00000  Uiso   1.00
H540   H     0.59550   0.06947   0.63824   0.00000  Uiso   1.00
H541   H     0.42237   0.03997   0.00138   0.00000  Uiso   1.00
H542   H     0.52901   0.33258   0.68983   0.00000  Uiso   1.00
H543   H     0.68205   0.01106   0.55682   0.00000  Uiso   1.00
O544   O     0.44555   0.02546   0.16535   0.00000  Uiso   1.00
O545   O     0.58545   0.40935   0.75661   0.00000  Uiso   1.00
O546   O     0.78624   0.98751   0.58210   0.00000  Uiso   1.00
N547   N     0.52456   0.06551   0.11624   0.00000  Uiso   1.00
N548   N     0.62425   0.33908   0.82498   0.00000  Uiso   1.00
N549   N     0.76734   0.03850   0.70061   0.00000  Uiso   1.00
N550   N     0.45863   0.05164   0.02440   0.00000  Uiso   1.00
N551   N     0.55831   0.32521   0.73313   0.00000  Uiso   1.00
N552   N     0.70140   0.02462   0.60876   0.00000  Uiso   1.00
C553   C     0.19460   0.65758   0.36762   0.00000  Uiso   1.00
C554   C     0.14598   0.63068   0.40855   0.00000  Uiso   1.00
C555   C     0.14231   0.61558   0.49335   0.00000  Uiso   1.00
C556   C     0.09440   0.59153   0.51836   0.00000  Uiso   1.00
C557   C     0.02539   0.55109   0.59070   0.00000  Uiso   1.00
C558   C     0.17224   0.70680   0.32921   0.00000  Uiso   1.00
C559   C     0.19066   0.75570   0.34730   0.00000  Uiso   1.00
C560   C     0.16486   0.79573   0.30551   0.00000  Uiso   1.00
C561   C     0.13665   0.87347   0.25463   0.00000  Uiso   1.00
C562   C     0.21173   0.62440   0.29221   0.00000  Uiso   1.00
C563   C     0.26336   0.60402   0.27917   0.00000  Uiso   1.00
C564   C     0.27081   0.57468   0.20622   0.00000  Uiso   1.00
C565   C     0.30392   0.52448   0.09789   0.00000  Uiso   1.00
C566   C     0.11604   0.64172   0.26123   0.00000  Uiso   1.00
C567   C     0.10331   0.62207   0.35075   0.00000  Uiso   1.00
C568   C     0.05540   0.59803   0.37564   0.00000  Uiso   1.00
C569   C     0.05165   0.58290   0.46047   0.00000  Uiso   1.00
C570   C     0.12957   0.69819   0.27142   0.00000  Uiso   1.00
C571   C     0.10375   0.73816   0.22959   0.00000  Uiso   1.00
C572   C     0.12212   0.78710   0.24761   0.00000  Uiso   1.00
C573   C     0.16906   0.61578   0.23441   0.00000  Uiso   1.00
C574   C     0.17644   0.58648   0.16146   0.00000  Uiso   1.00
C575   C     0.22807   0.56606   0.14832   0.00000  Uiso   1.00
H576   H     0.22781   0.66428   0.41262   0.00000  Uiso   1.00
H577   H     0.17533   0.62225   0.53806   0.00000  Uiso   1.00
H578   H     0.22368   0.76235   0.39202   0.00000  Uiso   1.00
H579   H     0.29637   0.61069   0.32391   0.00000  Uiso   1.00
H580   H     0.09833   0.57187   0.65166   0.00000  Uiso   1.00
H581   H     0.20028   0.86727   0.34371   0.00000  Uiso   1.00
H582   H     0.35356   0.54748   0.20008   0.00000  Uiso   1.00
H583   H     0.08282   0.63502   0.21623   0.00000  Uiso   1.00
H584   H     0.02238   0.59138   0.33090   0.00000  Uiso   1.00
H585   H     0.07073   0.73148   0.18486   0.00000  Uiso   1.00
H586   H     0.14342   0.57982   0.11675   0.00000  Uiso   1.00
H587   H     0.97418   0.54681   0.48352   0.00000  Uiso   1.00
H588   H     0.07614   0.84222   0.17557   0.00000  Uiso   1.00
H589   H     0.22941   0.52242   0.03194   0.00000  Uiso   1.00
O590   O     0.99911   0.53117   0.64657   0.00000  Uiso   1.00
O591   O     0.13288   0.91873   0.24254   0.00000  Uiso   1.00
O592   O     0.33396   0.49917   0.05411   0.00000  Uiso   1.00
N593   N     0.07741   0.57195   0.59635   0.00000  Uiso   1.00
N594   N     0.17272   0.84814   0.30844   0.00000  Uiso   1.00
N595   N     0.31603   0.54917   0.17415   0.00000  Uiso   1.00
N596   N     0.01061   0.55847   0.50587   0.00000  Uiso   1.00
N597   N     0.10592   0.83466   0.21797   0.00000  Uiso   1.00
N598   N     0.24923   0.53568   0.08367   0.00000  Uiso   1.00
C599   C     0.14452   0.35111   0.11129   0.00000  Uiso   1.00
C600   C     0.09535   0.37749   0.07103   0.00000  Uiso   1.00
C601   C     0.09073   0.39193   0.98602   0.00000  Uiso   1.00
C602   C     0.04245   0.41558   0.96171   0.00000  Uiso   1.00
C603   C     0.97250   0.45516   0.89027   0.00000  Uiso   1.00
C604   C     0.12282   0.30209   0.15130   0.00000  Uiso   1.00
C605   C     0.14130   0.25314   0.13377   0.00000  Uiso   1.00
C606   C     0.11614   0.21331   0.17705   0.00000  Uiso   1.00
C607   C     0.08887   0.13584   0.23026   0.00000  Uiso   1.00
C608   C     0.16225   0.38493   0.18556   0.00000  Uiso   1.00
C609   C     0.21389   0.40563   0.19687   0.00000  Uiso   1.00
C610   C     0.22194   0.43555   0.26900   0.00000  Uiso   1.00
C611   C     0.25589   0.48671   0.37542   0.00000  Uiso   1.00
C612   C     0.06698   0.36742   0.21931   0.00000  Uiso   1.00
C613   C     0.05323   0.38634   0.12970   0.00000  Uiso   1.00
C614   C     0.00494   0.40998   0.10552   0.00000  Uiso   1.00
C615   C     0.00026   0.42445   0.02049   0.00000  Uiso   1.00
C616   C     0.08070   0.31094   0.20996   0.00000  Uiso   1.00
C617   C     0.05551   0.27118   0.25328   0.00000  Uiso   1.00
C618   C     0.07395   0.22218   0.23582   0.00000  Uiso   1.00
C619   C     0.12013   0.39380   0.24423   0.00000  Uiso   1.00
C620   C     0.12810   0.42368   0.31637   0.00000  Uiso   1.00
C621   C     0.17975   0.44442   0.32778   0.00000  Uiso   1.00
H622   H     0.17731   0.34421   0.06562   0.00000  Uiso   1.00
H623   H     0.12333   0.38506   0.94063   0.00000  Uiso   1.00
H624   H     0.17390   0.24629   0.08837   0.00000  Uiso   1.00
H625   H     0.24648   0.39877   0.15145   0.00000  Uiso   1.00
H626   H     0.04491   0.43425   0.82793   0.00000  Uiso   1.00
H627   H     0.15154   0.14164   0.13947   0.00000  Uiso   1.00
H628   H     0.30459   0.46316   0.27249   0.00000  Uiso   1.00
H629   H     0.03419   0.37432   0.26499   0.00000  Uiso   1.00
H630   H     0.97236   0.41683   0.15094   0.00000  Uiso   1.00
H631   H     0.02292   0.27805   0.29868   0.00000  Uiso   1.00
H632   H     0.09550   0.43053   0.36176   0.00000  Uiso   1.00
H633   H     0.92237   0.46003   0.99862   0.00000  Uiso   1.00
H634   H     0.02901   0.16742   0.31017   0.00000  Uiso   1.00
H635   H     0.18205   0.48894   0.44318   0.00000  Uiso   1.00
O636   O     0.94555   0.47454   0.83465   0.00000  Uiso   1.00
O637   O     0.08545   0.09065   0.24339   0.00000  Uiso   1.00
O638   O     0.28624   0.51249   0.41790   0.00000  Uiso   1.00
N639   N     0.02456   0.43449   0.88376   0.00000  Uiso   1.00
N640   N     0.12425   0.16092   0.17502   0.00000  Uiso   1.00
N641   N     0.26734   0.46150   0.29939   0.00000  Uiso   1.00
N642   N     0.95863   0.44836   0.97560   0.00000  Uiso   1.00
N643   N     0.05831   0.17479   0.26687   0.00000  Uiso   1.00
N644   N     0.20140   0.47538   0.39124   0.00000  Uiso   1.00
C645   C     0.30540   0.34242   0.86762   0.00000  Uiso   1.00
C646   C     0.35402   0.36932   0.90855   0.00000  Uiso   1.00
C647   C     0.35769   0.38442   0.99335   0.00000  Uiso   1.00
C648   C     0.40560   0.40847   0.01836   0.00000  Uiso   1.00
C649   C     0.47461   0.44891   0.09070   0.00000  Uiso   1.00
C650   C     0.32776   0.29320   0.82921   0.00000  Uiso   1.00
C651   C     0.30934   0.24430   0.84730   0.00000  Uiso   1.00
C652   C     0.33514   0.20427   0.80551   0.00000  Uiso   1.00
C653   C     0.36335   0.12653   0.75463   0.00000  Uiso   1.00
C654   C     0.28827   0.37560   0.79221   0.00000  Uiso   1.00
C655   C     0.23664   0.39598   0.77917   0.00000  Uiso   1.00
C656   C     0.22919   0.42532   0.70622   0.00000  Uiso   1.00
C657   C     0.19608   0.47552   0.59789   0.00000  Uiso   1.00
C658   C     0.38396   0.35828   0.76123   0.00000  Uiso   1.00
C659   C     0.39669   0.37793   0.85075   0.00000  Uiso   1.00
C660   C     0.44460   0.40197   0.87564   0.00000  Uiso   1.00
C661   C     0.44835   0.41710   0.96047   0.00000  Uiso   1.00
C662   C     0.37043   0.30181   0.77142   0.00000  Uiso   1.00
C663   C     0.39625   0.26184   0.72959   0.00000  Uiso   1.00
C664   C     0.37788   0.21290   0.74761   0.00000  Uiso   1.00
C665   C     0.33094   0.38422   0.73441   0.00000  Uiso   1.00
C666   C     0.32356   0.41352   0.66146   0.00000  Uiso   1.00
C667   C     0.27193   0.43394   0.64832   0.00000  Uiso   1.00
H668   H     0.27219   0.33572   0.91262   0.00000  Uiso   1.00
H669   H     0.32467   0.37775   0.03806   0.00000  Uiso   1.00
H670   H     0.27632   0.23765   0.89202   0.00000  Uiso   1.00
H671   H     0.20363   0.38931   0.82391   0.00000  Uiso   1.00
H672   H     0.40167   0.42813   0.15166   0.00000  Uiso   1.00
H673   H     0.29972   0.13273   0.84371   0.00000  Uiso   1.00
H674   H     0.14644   0.45252   0.70008   0.00000  Uiso   1.00
H675   H     0.41718   0.36498   0.71623   0.00000  Uiso   1.00
H676   H     0.47762   0.40862   0.83090   0.00000  Uiso   1.00
H677   H     0.42927   0.26852   0.68486   0.00000  Uiso   1.00
H678   H     0.35658   0.42018   0.61675   0.00000  Uiso   1.00
H679   H     0.52582   0.45319   0.98352   0.00000  Uiso   1.00
H680   H     0.42386   0.15778   0.67557   0.00000  Uiso   1.00
H681   H     0.27059   0.47758   0.53194   0.00000  Uiso   1.00
O682   O     0.50089   0.46883   0.14657   0.00000  Uiso   1.00
O683   O     0.36712   0.08127   0.74254   0.00000  Uiso   1.00
O684   O     0.16604   0.50083   0.55411   0.00000  Uiso   1.00
N685   N     0.42259   0.42805   0.09635   0.00000  Uiso   1.00
N686   N     0.32728   0.15186   0.80844   0.00000  Uiso   1.00
N687   N     0.18397   0.45083   0.67415   0.00000  Uiso   1.00
N688   N     0.48939   0.44153   0.00587   0.00000  Uiso   1.00
N689   N     0.39408   0.16534   0.71797   0.00000  Uiso   1.00
N690   N     0.25077   0.46432   0.58367   0.00000  Uiso   1.00
C691   C     0.35548   0.64889   0.61129   0.00000  Uiso   1.00
C692   C     0.40465   0.62251   0.57103   0.00000  Uiso   1.00
C693   C     0.40927   0.60807   0.48602   0.00000  Uiso   1.00
C694   C     0.45755   0.58442   0.46171   0.00000  Uiso   1.00
C695   C     0.52750   0.54484   0.39027   0.00000  Uiso   1.00
C696   C     0.37718   0.69791   0.65130   0.00000  Uiso   1.00
C697   C     0.35870   0.74686   0.63377   0.00000  Uiso   1.00
C698   C     0.38386   0.78669   0.67705   0.00000  Uiso   1.00
C699   C     0.41113   0.86416   0.73026   0.00000  Uiso   1.00
C700   C     0.33775   0.61507   0.68556   0.00000  Uiso   1.00
C701   C     0.28611   0.59437   0.69687   0.00000  Uiso   1.00
C702   C     0.27806   0.56445   0.76900   0.00000  Uiso   1.00
C703   C     0.24411   0.51329   0.87542   0.00000  Uiso   1.00
C704   C     0.43302   0.63258   0.71931   0.00000  Uiso   1.00
C705   C     0.44677   0.61366   0.62970   0.00000  Uiso   1.00
C706   C     0.49506   0.59002   0.60552   0.00000  Uiso   1.00
C707   C     0.49974   0.57555   0.52049   0.00000  Uiso   1.00
C708   C     0.41930   0.68906   0.70996   0.00000  Uiso   1.00
C709   C     0.44449   0.72882   0.75328   0.00000  Uiso   1.00
C710   C     0.42605   0.77782   0.73582   0.00000  Uiso   1.00
C711   C     0.37987   0.60620   0.74423   0.00000  Uiso   1.00
C712   C     0.37190   0.57632   0.81637   0.00000  Uiso   1.00
C713   C     0.32025   0.55558   0.82778   0.00000  Uiso   1.00
H714   H     0.32269   0.65579   0.56562   0.00000  Uiso   1.00
H715   H     0.37667   0.61494   0.44063   0.00000  Uiso   1.00
H716   H     0.32610   0.75371   0.58837   0.00000  Uiso   1.00
H717   H     0.25352   0.60123   0.65145   0.00000  Uiso   1.00
H718   H     0.45509   0.56575   0.32793   0.00000  Uiso   1.00
H719   H     0.34846   0.85836   0.63947   0.00000  Uiso   1.00
H720   H     0.19541   0.53684   0.77249   0.00000  Uiso   1.00
H721   H     0.46581   0.62568   0.76499   0.00000  Uiso   1.00
H722   H     0.52764   0.58317   0.65094   0.00000  Uiso   1.00
H723   H     0.47708   0.72195   0.79868   0.00000  Uiso   1.00
H724   H     0.40450   0.56947   0.86176   0.00000  Uiso   1.00
H725   H     0.57763   0.53997   0.49862   0.00000  Uiso   1.00
H726   H     0.47099   0.83258   0.81017   0.00000  Uiso   1.00
H727   H     0.31795   0.51106   0.94318   0.00000  Uiso   1.00
O728   O     0.55445   0.52546   0.33465   0.00000  Uiso   1.00
O729   O     0.41455   0.90935   0.74339   0.00000  Uiso   1.00
O730   O     0.21376   0.48751   0.91790   0.00000  Uiso   1.00
N731   N     0.47544   0.56551   0.38376   0.00000  Uiso   1.00
N732   N     0.37575   0.83908   0.67502   0.00000  Uiso   1.00
N733   N     0.23266   0.53850   0.79939   0.00000  Uiso   1.00
N734   N     0.54137   0.55164   0.47560   0.00000  Uiso   1.00
N735   N     0.44169   0.82521   0.76687   0.00000  Uiso   1.00
N736   N     0.29860   0.52462   0.89124   0.00000  Uiso   1.00
