data_job_03222
_audit_creation_date              2018-12-19
_audit_creation_method            'Materials Studio'
_symmetry_space_group_name_H-M    'P1'
_symmetry_Int_Tables_number       1
_symmetry_cell_setting            triclinic
loop_
_symmetry_equiv_pos_as_xyz
  x,y,z
_cell_length_a                    14.7409
_cell_length_b                    14.7409
_cell_length_c                    49.7553
_cell_angle_alpha                 90.0000
_cell_angle_beta                  90.0000
_cell_angle_gamma                 90.0000
loop_
_atom_site_label
_atom_site_type_symbol
_atom_site_fract_x
_atom_site_fract_y
_atom_site_fract_z
_atom_site_U_iso_or_equiv
_atom_site_adp_type
_atom_site_occupancy
C1     C     0.69497   0.34545   0.32186   0.00000  Uiso   1.00
C2     C     0.67364   0.44644   0.32391   0.00000  Uiso   1.00
C3     C     0.62936   0.48851   0.34513   0.00000  Uiso   1.00
C4     C     0.61633   0.58156   0.34320   0.00000  Uiso   1.00
C5     C     0.57858   0.73090   0.34977   0.00000  Uiso   1.00
C6     C     0.65209   0.31318   0.29566   0.00000  Uiso   1.00
C7     C     0.58970   0.24320   0.29313   0.00000  Uiso   1.00
C8     C     0.55854   0.22407   0.26741   0.00000  Uiso   1.00
C9     C     0.48739   0.16646   0.23013   0.00000  Uiso   1.00
C10    C     0.79728   0.33871   0.31780   0.00000  Uiso   1.00
C11    C     0.85695   0.29017   0.33388   0.00000  Uiso   1.00
C12    C     0.94803   0.29251   0.32680   0.00000  Uiso   1.00
C13    C     0.10230   0.27455   0.32389   0.00000  Uiso   1.00
C14    C     0.75060   0.43590   0.28068   0.00000  Uiso   1.00
C15    C     0.70386   0.49557   0.30154   0.00000  Uiso   1.00
C16    C     0.69090   0.58858   0.29957   0.00000  Uiso   1.00
C17    C     0.64660   0.63078   0.32079   0.00000  Uiso   1.00
C18    C     0.68231   0.36231   0.27329   0.00000  Uiso   1.00
C19    C     0.65124   0.34327   0.24757   0.00000  Uiso   1.00
C20    C     0.58881   0.27328   0.24501   0.00000  Uiso   1.00
C21    C     0.82750   0.38784   0.29543   0.00000  Uiso   1.00
C22    C     0.91850   0.39025   0.28832   0.00000  Uiso   1.00
C23    C     0.97830   0.34173   0.30439   0.00000  Uiso   1.00
H24    H     0.67144   0.30720   0.33927   0.00000  Uiso   1.00
H25    H     0.60597   0.45047   0.36244   0.00000  Uiso   1.00
H26    H     0.56633   0.20519   0.31044   0.00000  Uiso   1.00
H27    H     0.83354   0.25216   0.35119   0.00000  Uiso   1.00
H28    H     0.54669   0.63097   0.37825   0.00000  Uiso   1.00
H29    H     0.46312   0.11376   0.26862   0.00000  Uiso   1.00
H30    H     0.02659   0.21280   0.35453   0.00000  Uiso   1.00
H31    H     0.77412   0.47415   0.26327   0.00000  Uiso   1.00
H32    H     0.71429   0.62658   0.28226   0.00000  Uiso   1.00
H33    H     0.67465   0.38130   0.23027   0.00000  Uiso   1.00
H34    H     0.94186   0.42827   0.27101   0.00000  Uiso   1.00
H35    H     0.63460   0.77391   0.31318   0.00000  Uiso   1.00
H36    H     0.55103   0.25669   0.20354   0.00000  Uiso   1.00
H37    H     0.11450   0.35574   0.28946   0.00000  Uiso   1.00
O38    O     0.54941   0.79969   0.35958   0.00000  Uiso   1.00
O39    O     0.43978   0.12113   0.21574   0.00000  Uiso   1.00
O40    O     0.17904   0.25108   0.32846   0.00000  Uiso   1.00
N41    N     0.57561   0.64369   0.36033   0.00000  Uiso   1.00
N42    N     0.49746   0.16014   0.25783   0.00000  Uiso   1.00
N43    N     0.02426   0.25272   0.33815   0.00000  Uiso   1.00
N44    N     0.62291   0.72061   0.32532   0.00000  Uiso   1.00
N45    N     0.54477   0.23706   0.22282   0.00000  Uiso   1.00
N46    N     0.07156   0.32964   0.30314   0.00000  Uiso   1.00
C47    C     0.19497   0.84545   0.82186   0.00000  Uiso   1.00
C48    C     0.17364   0.94644   0.82391   0.00000  Uiso   1.00
C49    C     0.12936   0.98851   0.84513   0.00000  Uiso   1.00
C50    C     0.11633   0.08156   0.84320   0.00000  Uiso   1.00
C51    C     0.07858   0.23090   0.84977   0.00000  Uiso   1.00
C52    C     0.15209   0.81318   0.79566   0.00000  Uiso   1.00
C53    C     0.08970   0.74320   0.79313   0.00000  Uiso   1.00
C54    C     0.05854   0.72407   0.76741   0.00000  Uiso   1.00
C55    C     0.98739   0.66646   0.73013   0.00000  Uiso   1.00
C56    C     0.29728   0.83871   0.81780   0.00000  Uiso   1.00
C57    C     0.35695   0.79017   0.83388   0.00000  Uiso   1.00
C58    C     0.44803   0.79251   0.82680   0.00000  Uiso   1.00
C59    C     0.60230   0.77455   0.82389   0.00000  Uiso   1.00
C60    C     0.25060   0.93590   0.78068   0.00000  Uiso   1.00
C61    C     0.20386   0.99557   0.80154   0.00000  Uiso   1.00
C62    C     0.19090   0.08858   0.79957   0.00000  Uiso   1.00
C63    C     0.14660   0.13078   0.82079   0.00000  Uiso   1.00
C64    C     0.18231   0.86231   0.77329   0.00000  Uiso   1.00
C65    C     0.15124   0.84327   0.74757   0.00000  Uiso   1.00
C66    C     0.08881   0.77328   0.74501   0.00000  Uiso   1.00
C67    C     0.32750   0.88784   0.79543   0.00000  Uiso   1.00
C68    C     0.41850   0.89025   0.78832   0.00000  Uiso   1.00
C69    C     0.47830   0.84173   0.80439   0.00000  Uiso   1.00
H70    H     0.17144   0.80720   0.83927   0.00000  Uiso   1.00
H71    H     0.10597   0.95047   0.86244   0.00000  Uiso   1.00
H72    H     0.06633   0.70519   0.81044   0.00000  Uiso   1.00
H73    H     0.33354   0.75216   0.85119   0.00000  Uiso   1.00
H74    H     0.04669   0.13097   0.87825   0.00000  Uiso   1.00
H75    H     0.96312   0.61376   0.76862   0.00000  Uiso   1.00
H76    H     0.52659   0.71280   0.85453   0.00000  Uiso   1.00
H77    H     0.27412   0.97415   0.76327   0.00000  Uiso   1.00
H78    H     0.21429   0.12658   0.78226   0.00000  Uiso   1.00
H79    H     0.17465   0.88130   0.73027   0.00000  Uiso   1.00
H80    H     0.44186   0.92827   0.77101   0.00000  Uiso   1.00
H81    H     0.13460   0.27391   0.81318   0.00000  Uiso   1.00
H82    H     0.05103   0.75669   0.70354   0.00000  Uiso   1.00
H83    H     0.61450   0.85574   0.78946   0.00000  Uiso   1.00
O84    O     0.04941   0.29969   0.85958   0.00000  Uiso   1.00
O85    O     0.93978   0.62113   0.71574   0.00000  Uiso   1.00
O86    O     0.67904   0.75108   0.82846   0.00000  Uiso   1.00
N87    N     0.07561   0.14369   0.86033   0.00000  Uiso   1.00
N88    N     0.99746   0.66014   0.75783   0.00000  Uiso   1.00
N89    N     0.52426   0.75272   0.83815   0.00000  Uiso   1.00
N90    N     0.12291   0.22061   0.82532   0.00000  Uiso   1.00
N91    N     0.04477   0.73706   0.72282   0.00000  Uiso   1.00
N92    N     0.57156   0.82964   0.80314   0.00000  Uiso   1.00
C93    C     0.80503   0.15455   0.82186   0.00000  Uiso   1.00
C94    C     0.82636   0.05356   0.82391   0.00000  Uiso   1.00
C95    C     0.87064   0.01149   0.84513   0.00000  Uiso   1.00
C96    C     0.88367   0.91844   0.84320   0.00000  Uiso   1.00
C97    C     0.92142   0.76910   0.84977   0.00000  Uiso   1.00
C98    C     0.84791   0.18682   0.79566   0.00000  Uiso   1.00
C99    C     0.91030   0.25680   0.79313   0.00000  Uiso   1.00
C100   C     0.94146   0.27593   0.76741   0.00000  Uiso   1.00
C101   C     0.01261   0.33354   0.73013   0.00000  Uiso   1.00
C102   C     0.70272   0.16129   0.81780   0.00000  Uiso   1.00
C103   C     0.64305   0.20983   0.83388   0.00000  Uiso   1.00
C104   C     0.55197   0.20749   0.82680   0.00000  Uiso   1.00
C105   C     0.39770   0.22545   0.82389   0.00000  Uiso   1.00
C106   C     0.74940   0.06410   0.78068   0.00000  Uiso   1.00
C107   C     0.79614   0.00443   0.80154   0.00000  Uiso   1.00
C108   C     0.80910   0.91142   0.79957   0.00000  Uiso   1.00
C109   C     0.85340   0.86922   0.82079   0.00000  Uiso   1.00
C110   C     0.81769   0.13769   0.77329   0.00000  Uiso   1.00
C111   C     0.84876   0.15673   0.74757   0.00000  Uiso   1.00
C112   C     0.91119   0.22672   0.74501   0.00000  Uiso   1.00
C113   C     0.67250   0.11216   0.79543   0.00000  Uiso   1.00
C114   C     0.58150   0.10975   0.78832   0.00000  Uiso   1.00
C115   C     0.52170   0.15827   0.80439   0.00000  Uiso   1.00
H116   H     0.82856   0.19280   0.83927   0.00000  Uiso   1.00
H117   H     0.89403   0.04953   0.86244   0.00000  Uiso   1.00
H118   H     0.93367   0.29481   0.81044   0.00000  Uiso   1.00
H119   H     0.66646   0.24784   0.85119   0.00000  Uiso   1.00
H120   H     0.95331   0.86903   0.87825   0.00000  Uiso   1.00
H121   H     0.03688   0.38624   0.76862   0.00000  Uiso   1.00
H122   H     0.47341   0.28720   0.85453   0.00000  Uiso   1.00
H123   H     0.72588   0.02585   0.76327   0.00000  Uiso   1.00
H124   H     0.78571   0.87342   0.78226   0.00000  Uiso   1.00
H125   H     0.82535   0.11870   0.73027   0.00000  Uiso   1.00
H126   H     0.55814   0.07173   0.77101   0.00000  Uiso   1.00
H127   H     0.86540   0.72609   0.81318   0.00000  Uiso   1.00
H128   H     0.94897   0.24331   0.70354   0.00000  Uiso   1.00
H129   H     0.38550   0.14426   0.78946   0.00000  Uiso   1.00
O130   O     0.95059   0.70031   0.85958   0.00000  Uiso   1.00
O131   O     0.06022   0.37887   0.71574   0.00000  Uiso   1.00
O132   O     0.32096   0.24892   0.82846   0.00000  Uiso   1.00
N133   N     0.92439   0.85631   0.86033   0.00000  Uiso   1.00
N134   N     0.00254   0.33986   0.75783   0.00000  Uiso   1.00
N135   N     0.47574   0.24728   0.83815   0.00000  Uiso   1.00
N136   N     0.87709   0.77939   0.82532   0.00000  Uiso   1.00
N137   N     0.95523   0.26294   0.72282   0.00000  Uiso   1.00
N138   N     0.42844   0.17036   0.80314   0.00000  Uiso   1.00
C139   C     0.30503   0.65455   0.32186   0.00000  Uiso   1.00
C140   C     0.32636   0.55356   0.32391   0.00000  Uiso   1.00
C141   C     0.37064   0.51149   0.34513   0.00000  Uiso   1.00
C142   C     0.38367   0.41844   0.34320   0.00000  Uiso   1.00
C143   C     0.42142   0.26910   0.34977   0.00000  Uiso   1.00
C144   C     0.34791   0.68682   0.29566   0.00000  Uiso   1.00
C145   C     0.41030   0.75680   0.29313   0.00000  Uiso   1.00
C146   C     0.44146   0.77593   0.26741   0.00000  Uiso   1.00
C147   C     0.51261   0.83354   0.23013   0.00000  Uiso   1.00
C148   C     0.20272   0.66129   0.31780   0.00000  Uiso   1.00
C149   C     0.14305   0.70983   0.33388   0.00000  Uiso   1.00
C150   C     0.05197   0.70749   0.32680   0.00000  Uiso   1.00
C151   C     0.89770   0.72545   0.32389   0.00000  Uiso   1.00
C152   C     0.24940   0.56410   0.28068   0.00000  Uiso   1.00
C153   C     0.29614   0.50443   0.30154   0.00000  Uiso   1.00
C154   C     0.30910   0.41142   0.29957   0.00000  Uiso   1.00
C155   C     0.35340   0.36922   0.32079   0.00000  Uiso   1.00
C156   C     0.31769   0.63769   0.27329   0.00000  Uiso   1.00
C157   C     0.34876   0.65673   0.24757   0.00000  Uiso   1.00
C158   C     0.41119   0.72672   0.24501   0.00000  Uiso   1.00
C159   C     0.17250   0.61216   0.29543   0.00000  Uiso   1.00
C160   C     0.08150   0.60975   0.28832   0.00000  Uiso   1.00
C161   C     0.02170   0.65827   0.30439   0.00000  Uiso   1.00
H162   H     0.32856   0.69280   0.33927   0.00000  Uiso   1.00
H163   H     0.39403   0.54953   0.36244   0.00000  Uiso   1.00
H164   H     0.43367   0.79481   0.31044   0.00000  Uiso   1.00
H165   H     0.16646   0.74784   0.35119   0.00000  Uiso   1.00
H166   H     0.45331   0.36903   0.37825   0.00000  Uiso   1.00
H167   H     0.53688   0.88624   0.26862   0.00000  Uiso   1.00
H168   H     0.97341   0.78720   0.35453   0.00000  Uiso   1.00
H169   H     0.22588   0.52585   0.26327   0.00000  Uiso   1.00
H170   H     0.28571   0.37342   0.28226   0.00000  Uiso   1.00
H171   H     0.32535   0.61870   0.23027   0.00000  Uiso   1.00
H172   H     0.05814   0.57173   0.27101   0.00000  Uiso   1.00
H173   H     0.36540   0.22609   0.31318   0.00000  Uiso   1.00
H174   H     0.44897   0.74331   0.20354   0.00000  Uiso   1.00
H175   H     0.88550   0.64426   0.28946   0.00000  Uiso   1.00
O176   O     0.45059   0.20031   0.35958   0.00000  Uiso   1.00
O177   O     0.56022   0.87887   0.21574   0.00000  Uiso   1.00
O178   O     0.82096   0.74892   0.32846   0.00000  Uiso   1.00
N179   N     0.42439   0.35631   0.36033   0.00000  Uiso   1.00
N180   N     0.50254   0.83986   0.25783   0.00000  Uiso   1.00
N181   N     0.97574   0.74728   0.33815   0.00000  Uiso   1.00
N182   N     0.37709   0.27939   0.32532   0.00000  Uiso   1.00
N183   N     0.45523   0.76294   0.22282   0.00000  Uiso   1.00
N184   N     0.92844   0.67036   0.30314   0.00000  Uiso   1.00
C185   C     0.65455   0.19497   0.57186   0.00000  Uiso   1.00
C186   C     0.55356   0.17364   0.57391   0.00000  Uiso   1.00
C187   C     0.51149   0.12936   0.59513   0.00000  Uiso   1.00
C188   C     0.41844   0.11633   0.59320   0.00000  Uiso   1.00
C189   C     0.26910   0.07858   0.59977   0.00000  Uiso   1.00
C190   C     0.68682   0.15209   0.54566   0.00000  Uiso   1.00
C191   C     0.75680   0.08970   0.54313   0.00000  Uiso   1.00
C192   C     0.77593   0.05854   0.51741   0.00000  Uiso   1.00
C193   C     0.83354   0.98739   0.48013   0.00000  Uiso   1.00
C194   C     0.66129   0.29728   0.56780   0.00000  Uiso   1.00
C195   C     0.70983   0.35695   0.58388   0.00000  Uiso   1.00
C196   C     0.70749   0.44803   0.57680   0.00000  Uiso   1.00
C197   C     0.72545   0.60230   0.57389   0.00000  Uiso   1.00
C198   C     0.56410   0.25060   0.53068   0.00000  Uiso   1.00
C199   C     0.50443   0.20386   0.55154   0.00000  Uiso   1.00
C200   C     0.41142   0.19090   0.54957   0.00000  Uiso   1.00
C201   C     0.36922   0.14660   0.57079   0.00000  Uiso   1.00
C202   C     0.63769   0.18231   0.52329   0.00000  Uiso   1.00
C203   C     0.65673   0.15124   0.49757   0.00000  Uiso   1.00
C204   C     0.72672   0.08881   0.49501   0.00000  Uiso   1.00
C205   C     0.61216   0.32750   0.54543   0.00000  Uiso   1.00
C206   C     0.60975   0.41850   0.53832   0.00000  Uiso   1.00
C207   C     0.65827   0.47830   0.55439   0.00000  Uiso   1.00
H208   H     0.69280   0.17144   0.58927   0.00000  Uiso   1.00
H209   H     0.54953   0.10597   0.61244   0.00000  Uiso   1.00
H210   H     0.79481   0.06633   0.56044   0.00000  Uiso   1.00
H211   H     0.74784   0.33354   0.60119   0.00000  Uiso   1.00
H212   H     0.36903   0.04669   0.62825   0.00000  Uiso   1.00
H213   H     0.88624   0.96312   0.51862   0.00000  Uiso   1.00
H214   H     0.78720   0.52659   0.60453   0.00000  Uiso   1.00
H215   H     0.52585   0.27412   0.51327   0.00000  Uiso   1.00
H216   H     0.37342   0.21429   0.53226   0.00000  Uiso   1.00
H217   H     0.61870   0.17465   0.48027   0.00000  Uiso   1.00
H218   H     0.57173   0.44186   0.52101   0.00000  Uiso   1.00
H219   H     0.22609   0.13460   0.56318   0.00000  Uiso   1.00
H220   H     0.74331   0.05103   0.45354   0.00000  Uiso   1.00
H221   H     0.64426   0.61450   0.53946   0.00000  Uiso   1.00
O222   O     0.20031   0.04941   0.60958   0.00000  Uiso   1.00
O223   O     0.87887   0.93978   0.46574   0.00000  Uiso   1.00
O224   O     0.74892   0.67904   0.57846   0.00000  Uiso   1.00
N225   N     0.35631   0.07561   0.61033   0.00000  Uiso   1.00
N226   N     0.83986   0.99746   0.50783   0.00000  Uiso   1.00
N227   N     0.74728   0.52426   0.58815   0.00000  Uiso   1.00
N228   N     0.27939   0.12291   0.57532   0.00000  Uiso   1.00
N229   N     0.76294   0.04477   0.47282   0.00000  Uiso   1.00
N230   N     0.67036   0.57156   0.55314   0.00000  Uiso   1.00
C231   C     0.15455   0.69497   0.07186   0.00000  Uiso   1.00
C232   C     0.05356   0.67364   0.07391   0.00000  Uiso   1.00
C233   C     0.01149   0.62936   0.09513   0.00000  Uiso   1.00
C234   C     0.91844   0.61633   0.09320   0.00000  Uiso   1.00
C235   C     0.76910   0.57858   0.09977   0.00000  Uiso   1.00
C236   C     0.18682   0.65209   0.04566   0.00000  Uiso   1.00
C237   C     0.25680   0.58970   0.04313   0.00000  Uiso   1.00
C238   C     0.27593   0.55854   0.01741   0.00000  Uiso   1.00
C239   C     0.33354   0.48739   0.98013   0.00000  Uiso   1.00
C240   C     0.16129   0.79728   0.06780   0.00000  Uiso   1.00
C241   C     0.20983   0.85695   0.08388   0.00000  Uiso   1.00
C242   C     0.20749   0.94803   0.07680   0.00000  Uiso   1.00
C243   C     0.22545   0.10230   0.07389   0.00000  Uiso   1.00
C244   C     0.06410   0.75060   0.03068   0.00000  Uiso   1.00
C245   C     0.00443   0.70386   0.05154   0.00000  Uiso   1.00
C246   C     0.91142   0.69090   0.04957   0.00000  Uiso   1.00
C247   C     0.86922   0.64660   0.07079   0.00000  Uiso   1.00
C248   C     0.13769   0.68231   0.02329   0.00000  Uiso   1.00
C249   C     0.15673   0.65124   0.99757   0.00000  Uiso   1.00
C250   C     0.22672   0.58881   0.99501   0.00000  Uiso   1.00
C251   C     0.11216   0.82750   0.04543   0.00000  Uiso   1.00
C252   C     0.10975   0.91850   0.03832   0.00000  Uiso   1.00
C253   C     0.15827   0.97830   0.05439   0.00000  Uiso   1.00
H254   H     0.19280   0.67144   0.08927   0.00000  Uiso   1.00
H255   H     0.04953   0.60597   0.11244   0.00000  Uiso   1.00
H256   H     0.29481   0.56633   0.06044   0.00000  Uiso   1.00
H257   H     0.24784   0.83354   0.10119   0.00000  Uiso   1.00
H258   H     0.86903   0.54669   0.12825   0.00000  Uiso   1.00
H259   H     0.38624   0.46312   0.01862   0.00000  Uiso   1.00
H260   H     0.28720   0.02659   0.10453   0.00000  Uiso   1.00
H261   H     0.02585   0.77412   0.01327   0.00000  Uiso   1.00
H262   H     0.87342   0.71429   0.03226   0.00000  Uiso   1.00
H263   H     0.11870   0.67465   0.98027   0.00000  Uiso   1.00
H264   H     0.07173   0.94186   0.02101   0.00000  Uiso   1.00
H265   H     0.72609   0.63460   0.06318   0.00000  Uiso   1.00
H266   H     0.24331   0.55103   0.95354   0.00000  Uiso   1.00
H267   H     0.14426   0.11450   0.03946   0.00000  Uiso   1.00
O268   O     0.70031   0.54941   0.10958   0.00000  Uiso   1.00
O269   O     0.37887   0.43978   0.96574   0.00000  Uiso   1.00
O270   O     0.24892   0.17904   0.07846   0.00000  Uiso   1.00
N271   N     0.85631   0.57561   0.11033   0.00000  Uiso   1.00
N272   N     0.33986   0.49746   0.00783   0.00000  Uiso   1.00
N273   N     0.24728   0.02426   0.08815   0.00000  Uiso   1.00
N274   N     0.77939   0.62291   0.07532   0.00000  Uiso   1.00
N275   N     0.26294   0.54477   0.97282   0.00000  Uiso   1.00
N276   N     0.17036   0.07156   0.05314   0.00000  Uiso   1.00
C277   C     0.84545   0.30503   0.07186   0.00000  Uiso   1.00
C278   C     0.94644   0.32636   0.07391   0.00000  Uiso   1.00
C279   C     0.98851   0.37064   0.09513   0.00000  Uiso   1.00
C280   C     0.08156   0.38367   0.09320   0.00000  Uiso   1.00
C281   C     0.23090   0.42142   0.09977   0.00000  Uiso   1.00
C282   C     0.81318   0.34791   0.04566   0.00000  Uiso   1.00
C283   C     0.74320   0.41030   0.04313   0.00000  Uiso   1.00
C284   C     0.72407   0.44146   0.01741   0.00000  Uiso   1.00
C285   C     0.66646   0.51261   0.98013   0.00000  Uiso   1.00
C286   C     0.83871   0.20272   0.06780   0.00000  Uiso   1.00
C287   C     0.79017   0.14305   0.08388   0.00000  Uiso   1.00
C288   C     0.79251   0.05197   0.07680   0.00000  Uiso   1.00
C289   C     0.77455   0.89770   0.07389   0.00000  Uiso   1.00
C290   C     0.93590   0.24940   0.03068   0.00000  Uiso   1.00
C291   C     0.99557   0.29614   0.05154   0.00000  Uiso   1.00
C292   C     0.08858   0.30910   0.04957   0.00000  Uiso   1.00
C293   C     0.13078   0.35340   0.07079   0.00000  Uiso   1.00
C294   C     0.86231   0.31769   0.02329   0.00000  Uiso   1.00
C295   C     0.84327   0.34876   0.99757   0.00000  Uiso   1.00
C296   C     0.77328   0.41119   0.99501   0.00000  Uiso   1.00
C297   C     0.88784   0.17250   0.04543   0.00000  Uiso   1.00
C298   C     0.89025   0.08150   0.03832   0.00000  Uiso   1.00
C299   C     0.84173   0.02170   0.05439   0.00000  Uiso   1.00
H300   H     0.80720   0.32856   0.08927   0.00000  Uiso   1.00
H301   H     0.95047   0.39403   0.11244   0.00000  Uiso   1.00
H302   H     0.70519   0.43367   0.06044   0.00000  Uiso   1.00
H303   H     0.75216   0.16646   0.10119   0.00000  Uiso   1.00
H304   H     0.13097   0.45331   0.12825   0.00000  Uiso   1.00
H305   H     0.61376   0.53688   0.01862   0.00000  Uiso   1.00
H306   H     0.71280   0.97341   0.10453   0.00000  Uiso   1.00
H307   H     0.97415   0.22588   0.01327   0.00000  Uiso   1.00
H308   H     0.12658   0.28571   0.03226   0.00000  Uiso   1.00
H309   H     0.88130   0.32535   0.98027   0.00000  Uiso   1.00
H310   H     0.92827   0.05814   0.02101   0.00000  Uiso   1.00
H311   H     0.27391   0.36540   0.06318   0.00000  Uiso   1.00
H312   H     0.75669   0.44897   0.95354   0.00000  Uiso   1.00
H313   H     0.85574   0.88550   0.03946   0.00000  Uiso   1.00
O314   O     0.29969   0.45059   0.10958   0.00000  Uiso   1.00
O315   O     0.62113   0.56022   0.96574   0.00000  Uiso   1.00
O316   O     0.75108   0.82096   0.07846   0.00000  Uiso   1.00
N317   N     0.14369   0.42439   0.11033   0.00000  Uiso   1.00
N318   N     0.66014   0.50254   0.00783   0.00000  Uiso   1.00
N319   N     0.75272   0.97574   0.08815   0.00000  Uiso   1.00
N320   N     0.22061   0.37709   0.07532   0.00000  Uiso   1.00
N321   N     0.73706   0.45523   0.97282   0.00000  Uiso   1.00
N322   N     0.82964   0.92844   0.05314   0.00000  Uiso   1.00
C323   C     0.34545   0.80503   0.57186   0.00000  Uiso   1.00
C324   C     0.44644   0.82636   0.57391   0.00000  Uiso   1.00
C325   C     0.48851   0.87064   0.59513   0.00000  Uiso   1.00
C326   C     0.58156   0.88367   0.59320   0.00000  Uiso   1.00
C327   C     0.73090   0.92142   0.59977   0.00000  Uiso   1.00
C328   C     0.31318   0.84791   0.54566   0.00000  Uiso   1.00
C329   C     0.24320   0.91030   0.54313   0.00000  Uiso   1.00
C330   C     0.22407   0.94146   0.51741   0.00000  Uiso   1.00
C331   C     0.16646   0.01261   0.48013   0.00000  Uiso   1.00
C332   C     0.33871   0.70272   0.56780   0.00000  Uiso   1.00
C333   C     0.29017   0.64305   0.58388   0.00000  Uiso   1.00
C334   C     0.29251   0.55197   0.57680   0.00000  Uiso   1.00
C335   C     0.27455   0.39770   0.57389   0.00000  Uiso   1.00
C336   C     0.43590   0.74940   0.53068   0.00000  Uiso   1.00
C337   C     0.49557   0.79614   0.55154   0.00000  Uiso   1.00
C338   C     0.58858   0.80910   0.54957   0.00000  Uiso   1.00
C339   C     0.63078   0.85340   0.57079   0.00000  Uiso   1.00
C340   C     0.36231   0.81769   0.52329   0.00000  Uiso   1.00
C341   C     0.34327   0.84876   0.49757   0.00000  Uiso   1.00
C342   C     0.27328   0.91119   0.49501   0.00000  Uiso   1.00
C343   C     0.38784   0.67250   0.54543   0.00000  Uiso   1.00
C344   C     0.39025   0.58150   0.53832   0.00000  Uiso   1.00
C345   C     0.34173   0.52170   0.55439   0.00000  Uiso   1.00
H346   H     0.30720   0.82856   0.58927   0.00000  Uiso   1.00
H347   H     0.45047   0.89403   0.61244   0.00000  Uiso   1.00
H348   H     0.20519   0.93367   0.56044   0.00000  Uiso   1.00
H349   H     0.25216   0.66646   0.60119   0.00000  Uiso   1.00
H350   H     0.63097   0.95331   0.62825   0.00000  Uiso   1.00
H351   H     0.11376   0.03688   0.51862   0.00000  Uiso   1.00
H352   H     0.21280   0.47341   0.60453   0.00000  Uiso   1.00
H353   H     0.47415   0.72588   0.51327   0.00000  Uiso   1.00
H354   H     0.62658   0.78571   0.53226   0.00000  Uiso   1.00
H355   H     0.38130   0.82535   0.48027   0.00000  Uiso   1.00
H356   H     0.42827   0.55814   0.52101   0.00000  Uiso   1.00
H357   H     0.77391   0.86540   0.56318   0.00000  Uiso   1.00
H358   H     0.25669   0.94897   0.45354   0.00000  Uiso   1.00
H359   H     0.35574   0.38550   0.53946   0.00000  Uiso   1.00
O360   O     0.79969   0.95059   0.60958   0.00000  Uiso   1.00
O361   O     0.12113   0.06022   0.46574   0.00000  Uiso   1.00
O362   O     0.25108   0.32096   0.57846   0.00000  Uiso   1.00
N363   N     0.64369   0.92439   0.61033   0.00000  Uiso   1.00
N364   N     0.16014   0.00254   0.50783   0.00000  Uiso   1.00
N365   N     0.25272   0.47574   0.58815   0.00000  Uiso   1.00
N366   N     0.72061   0.87709   0.57532   0.00000  Uiso   1.00
N367   N     0.23706   0.95523   0.47282   0.00000  Uiso   1.00
N368   N     0.32964   0.42844   0.55314   0.00000  Uiso   1.00
C369   C     0.80503   0.34545   0.42814   0.00000  Uiso   1.00
C370   C     0.82636   0.44644   0.42609   0.00000  Uiso   1.00
C371   C     0.87064   0.48851   0.40487   0.00000  Uiso   1.00
C372   C     0.88367   0.58156   0.40680   0.00000  Uiso   1.00
C373   C     0.92142   0.73090   0.40023   0.00000  Uiso   1.00
C374   C     0.84791   0.31318   0.45434   0.00000  Uiso   1.00
C375   C     0.91030   0.24320   0.45687   0.00000  Uiso   1.00
C376   C     0.94146   0.22407   0.48259   0.00000  Uiso   1.00
C377   C     0.01261   0.16646   0.51987   0.00000  Uiso   1.00
C378   C     0.70272   0.33871   0.43220   0.00000  Uiso   1.00
C379   C     0.64305   0.29017   0.41612   0.00000  Uiso   1.00
C380   C     0.55197   0.29251   0.42320   0.00000  Uiso   1.00
C381   C     0.39770   0.27455   0.42611   0.00000  Uiso   1.00
C382   C     0.74940   0.43590   0.46932   0.00000  Uiso   1.00
C383   C     0.79614   0.49557   0.44846   0.00000  Uiso   1.00
C384   C     0.80910   0.58858   0.45043   0.00000  Uiso   1.00
C385   C     0.85340   0.63078   0.42921   0.00000  Uiso   1.00
C386   C     0.81769   0.36231   0.47671   0.00000  Uiso   1.00
C387   C     0.84876   0.34327   0.50243   0.00000  Uiso   1.00
C388   C     0.91119   0.27328   0.50499   0.00000  Uiso   1.00
C389   C     0.67250   0.38784   0.45457   0.00000  Uiso   1.00
C390   C     0.58150   0.39025   0.46168   0.00000  Uiso   1.00
C391   C     0.52170   0.34173   0.44561   0.00000  Uiso   1.00
H392   H     0.82856   0.30720   0.41073   0.00000  Uiso   1.00
H393   H     0.89403   0.45047   0.38756   0.00000  Uiso   1.00
H394   H     0.93367   0.20519   0.43956   0.00000  Uiso   1.00
H395   H     0.66646   0.25216   0.39881   0.00000  Uiso   1.00
H396   H     0.95331   0.63097   0.37175   0.00000  Uiso   1.00
H397   H     0.03688   0.11376   0.48138   0.00000  Uiso   1.00
H398   H     0.47341   0.21280   0.39547   0.00000  Uiso   1.00
H399   H     0.72588   0.47415   0.48673   0.00000  Uiso   1.00
H400   H     0.78571   0.62658   0.46774   0.00000  Uiso   1.00
H401   H     0.82535   0.38130   0.51973   0.00000  Uiso   1.00
H402   H     0.55814   0.42827   0.47899   0.00000  Uiso   1.00
H403   H     0.86540   0.77391   0.43682   0.00000  Uiso   1.00
H404   H     0.94897   0.25669   0.54646   0.00000  Uiso   1.00
H405   H     0.38550   0.35574   0.46054   0.00000  Uiso   1.00
O406   O     0.95059   0.79969   0.39042   0.00000  Uiso   1.00
O407   O     0.06022   0.12113   0.53426   0.00000  Uiso   1.00
O408   O     0.32096   0.25108   0.42154   0.00000  Uiso   1.00
N409   N     0.92439   0.64369   0.38967   0.00000  Uiso   1.00
N410   N     0.00254   0.16014   0.49217   0.00000  Uiso   1.00
N411   N     0.47574   0.25272   0.41185   0.00000  Uiso   1.00
N412   N     0.87709   0.72061   0.42468   0.00000  Uiso   1.00
N413   N     0.95523   0.23706   0.52718   0.00000  Uiso   1.00
N414   N     0.42844   0.32964   0.44686   0.00000  Uiso   1.00
C415   C     0.30503   0.84545   0.92814   0.00000  Uiso   1.00
C416   C     0.32636   0.94644   0.92609   0.00000  Uiso   1.00
C417   C     0.37064   0.98851   0.90487   0.00000  Uiso   1.00
C418   C     0.38367   0.08156   0.90680   0.00000  Uiso   1.00
C419   C     0.42142   0.23090   0.90023   0.00000  Uiso   1.00
C420   C     0.34791   0.81318   0.95434   0.00000  Uiso   1.00
C421   C     0.41030   0.74320   0.95687   0.00000  Uiso   1.00
C422   C     0.44146   0.72407   0.98259   0.00000  Uiso   1.00
C423   C     0.51261   0.66646   0.01987   0.00000  Uiso   1.00
C424   C     0.20272   0.83871   0.93220   0.00000  Uiso   1.00
C425   C     0.14305   0.79017   0.91612   0.00000  Uiso   1.00
C426   C     0.05197   0.79251   0.92320   0.00000  Uiso   1.00
C427   C     0.89770   0.77455   0.92611   0.00000  Uiso   1.00
C428   C     0.24940   0.93590   0.96932   0.00000  Uiso   1.00
C429   C     0.29614   0.99557   0.94846   0.00000  Uiso   1.00
C430   C     0.30910   0.08858   0.95043   0.00000  Uiso   1.00
C431   C     0.35340   0.13078   0.92921   0.00000  Uiso   1.00
C432   C     0.31769   0.86231   0.97671   0.00000  Uiso   1.00
C433   C     0.34876   0.84327   0.00243   0.00000  Uiso   1.00
C434   C     0.41119   0.77328   0.00499   0.00000  Uiso   1.00
C435   C     0.17250   0.88784   0.95457   0.00000  Uiso   1.00
C436   C     0.08150   0.89025   0.96168   0.00000  Uiso   1.00
C437   C     0.02170   0.84173   0.94561   0.00000  Uiso   1.00
H438   H     0.32856   0.80720   0.91073   0.00000  Uiso   1.00
H439   H     0.39403   0.95047   0.88756   0.00000  Uiso   1.00
H440   H     0.43367   0.70519   0.93956   0.00000  Uiso   1.00
H441   H     0.16646   0.75216   0.89881   0.00000  Uiso   1.00
H442   H     0.45331   0.13097   0.87175   0.00000  Uiso   1.00
H443   H     0.53688   0.61376   0.98138   0.00000  Uiso   1.00
H444   H     0.97341   0.71280   0.89547   0.00000  Uiso   1.00
H445   H     0.22588   0.97415   0.98673   0.00000  Uiso   1.00
H446   H     0.28571   0.12658   0.96774   0.00000  Uiso   1.00
H447   H     0.32535   0.88130   0.01973   0.00000  Uiso   1.00
H448   H     0.05814   0.92827   0.97899   0.00000  Uiso   1.00
H449   H     0.36540   0.27391   0.93682   0.00000  Uiso   1.00
H450   H     0.44897   0.75669   0.04646   0.00000  Uiso   1.00
H451   H     0.88550   0.85574   0.96054   0.00000  Uiso   1.00
O452   O     0.45059   0.29969   0.89042   0.00000  Uiso   1.00
O453   O     0.56022   0.62113   0.03426   0.00000  Uiso   1.00
O454   O     0.82096   0.75108   0.92154   0.00000  Uiso   1.00
N455   N     0.42439   0.14369   0.88967   0.00000  Uiso   1.00
N456   N     0.50254   0.66014   0.99217   0.00000  Uiso   1.00
N457   N     0.97574   0.75272   0.91185   0.00000  Uiso   1.00
N458   N     0.37709   0.22061   0.92468   0.00000  Uiso   1.00
N459   N     0.45523   0.73706   0.02718   0.00000  Uiso   1.00
N460   N     0.92844   0.82964   0.94686   0.00000  Uiso   1.00
C461   C     0.69497   0.15455   0.92814   0.00000  Uiso   1.00
C462   C     0.67364   0.05356   0.92609   0.00000  Uiso   1.00
C463   C     0.62936   0.01149   0.90487   0.00000  Uiso   1.00
C464   C     0.61633   0.91844   0.90680   0.00000  Uiso   1.00
C465   C     0.57858   0.76910   0.90023   0.00000  Uiso   1.00
C466   C     0.65209   0.18682   0.95434   0.00000  Uiso   1.00
C467   C     0.58970   0.25680   0.95687   0.00000  Uiso   1.00
C468   C     0.55854   0.27593   0.98259   0.00000  Uiso   1.00
C469   C     0.48739   0.33354   0.01987   0.00000  Uiso   1.00
C470   C     0.79728   0.16129   0.93220   0.00000  Uiso   1.00
C471   C     0.85695   0.20983   0.91612   0.00000  Uiso   1.00
C472   C     0.94803   0.20749   0.92320   0.00000  Uiso   1.00
C473   C     0.10230   0.22545   0.92611   0.00000  Uiso   1.00
C474   C     0.75060   0.06410   0.96932   0.00000  Uiso   1.00
C475   C     0.70386   0.00443   0.94846   0.00000  Uiso   1.00
C476   C     0.69090   0.91142   0.95043   0.00000  Uiso   1.00
C477   C     0.64660   0.86922   0.92921   0.00000  Uiso   1.00
C478   C     0.68231   0.13769   0.97671   0.00000  Uiso   1.00
C479   C     0.65124   0.15673   0.00243   0.00000  Uiso   1.00
C480   C     0.58881   0.22672   0.00499   0.00000  Uiso   1.00
C481   C     0.82750   0.11216   0.95457   0.00000  Uiso   1.00
C482   C     0.91850   0.10975   0.96168   0.00000  Uiso   1.00
C483   C     0.97830   0.15827   0.94561   0.00000  Uiso   1.00
H484   H     0.67144   0.19280   0.91073   0.00000  Uiso   1.00
H485   H     0.60597   0.04953   0.88756   0.00000  Uiso   1.00
H486   H     0.56633   0.29481   0.93956   0.00000  Uiso   1.00
H487   H     0.83354   0.24784   0.89881   0.00000  Uiso   1.00
H488   H     0.54669   0.86903   0.87175   0.00000  Uiso   1.00
H489   H     0.46312   0.38624   0.98138   0.00000  Uiso   1.00
H490   H     0.02659   0.28720   0.89547   0.00000  Uiso   1.00
H491   H     0.77412   0.02585   0.98673   0.00000  Uiso   1.00
H492   H     0.71429   0.87342   0.96774   0.00000  Uiso   1.00
H493   H     0.67465   0.11870   0.01973   0.00000  Uiso   1.00
H494   H     0.94186   0.07173   0.97899   0.00000  Uiso   1.00
H495   H     0.63460   0.72609   0.93682   0.00000  Uiso   1.00
H496   H     0.55103   0.24331   0.04646   0.00000  Uiso   1.00
H497   H     0.11450   0.14426   0.96054   0.00000  Uiso   1.00
O498   O     0.54941   0.70031   0.89042   0.00000  Uiso   1.00
O499   O     0.43978   0.37887   0.03426   0.00000  Uiso   1.00
O500   O     0.17904   0.24892   0.92154   0.00000  Uiso   1.00
N501   N     0.57561   0.85631   0.88967   0.00000  Uiso   1.00
N502   N     0.49746   0.33986   0.99217   0.00000  Uiso   1.00
N503   N     0.02426   0.24728   0.91185   0.00000  Uiso   1.00
N504   N     0.62291   0.77939   0.92468   0.00000  Uiso   1.00
N505   N     0.54477   0.26294   0.02718   0.00000  Uiso   1.00
N506   N     0.07156   0.17036   0.94686   0.00000  Uiso   1.00
C507   C     0.19497   0.65455   0.42814   0.00000  Uiso   1.00
C508   C     0.17364   0.55356   0.42609   0.00000  Uiso   1.00
C509   C     0.12936   0.51149   0.40487   0.00000  Uiso   1.00
C510   C     0.11633   0.41844   0.40680   0.00000  Uiso   1.00
C511   C     0.07858   0.26910   0.40023   0.00000  Uiso   1.00
C512   C     0.15209   0.68682   0.45434   0.00000  Uiso   1.00
C513   C     0.08970   0.75680   0.45687   0.00000  Uiso   1.00
C514   C     0.05854   0.77593   0.48259   0.00000  Uiso   1.00
C515   C     0.98739   0.83354   0.51987   0.00000  Uiso   1.00
C516   C     0.29728   0.66129   0.43220   0.00000  Uiso   1.00
C517   C     0.35695   0.70983   0.41612   0.00000  Uiso   1.00
C518   C     0.44803   0.70749   0.42320   0.00000  Uiso   1.00
C519   C     0.60230   0.72545   0.42611   0.00000  Uiso   1.00
C520   C     0.25060   0.56410   0.46932   0.00000  Uiso   1.00
C521   C     0.20386   0.50443   0.44846   0.00000  Uiso   1.00
C522   C     0.19090   0.41142   0.45043   0.00000  Uiso   1.00
C523   C     0.14660   0.36922   0.42921   0.00000  Uiso   1.00
C524   C     0.18231   0.63769   0.47671   0.00000  Uiso   1.00
C525   C     0.15124   0.65673   0.50243   0.00000  Uiso   1.00
C526   C     0.08881   0.72672   0.50499   0.00000  Uiso   1.00
C527   C     0.32750   0.61216   0.45457   0.00000  Uiso   1.00
C528   C     0.41850   0.60975   0.46168   0.00000  Uiso   1.00
C529   C     0.47830   0.65827   0.44561   0.00000  Uiso   1.00
H530   H     0.17144   0.69280   0.41073   0.00000  Uiso   1.00
H531   H     0.10597   0.54953   0.38756   0.00000  Uiso   1.00
H532   H     0.06633   0.79481   0.43956   0.00000  Uiso   1.00
H533   H     0.33354   0.74784   0.39881   0.00000  Uiso   1.00
H534   H     0.04669   0.36903   0.37175   0.00000  Uiso   1.00
H535   H     0.96312   0.88624   0.48138   0.00000  Uiso   1.00
H536   H     0.52659   0.78720   0.39547   0.00000  Uiso   1.00
H537   H     0.27412   0.52585   0.48673   0.00000  Uiso   1.00
H538   H     0.21429   0.37342   0.46774   0.00000  Uiso   1.00
H539   H     0.17465   0.61870   0.51973   0.00000  Uiso   1.00
H540   H     0.44186   0.57173   0.47899   0.00000  Uiso   1.00
H541   H     0.13460   0.22609   0.43682   0.00000  Uiso   1.00
H542   H     0.05103   0.74331   0.54646   0.00000  Uiso   1.00
H543   H     0.61450   0.64426   0.46054   0.00000  Uiso   1.00
O544   O     0.04941   0.20031   0.39042   0.00000  Uiso   1.00
O545   O     0.93978   0.87887   0.53426   0.00000  Uiso   1.00
O546   O     0.67904   0.74892   0.42154   0.00000  Uiso   1.00
N547   N     0.07561   0.35631   0.38967   0.00000  Uiso   1.00
N548   N     0.99746   0.83986   0.49217   0.00000  Uiso   1.00
N549   N     0.52426   0.74728   0.41185   0.00000  Uiso   1.00
N550   N     0.12291   0.27939   0.42468   0.00000  Uiso   1.00
N551   N     0.04477   0.76294   0.52718   0.00000  Uiso   1.00
N552   N     0.57156   0.67036   0.44686   0.00000  Uiso   1.00
C553   C     0.84545   0.19497   0.17814   0.00000  Uiso   1.00
C554   C     0.94644   0.17364   0.17609   0.00000  Uiso   1.00
C555   C     0.98851   0.12936   0.15487   0.00000  Uiso   1.00
C556   C     0.08156   0.11633   0.15680   0.00000  Uiso   1.00
C557   C     0.23090   0.07858   0.15023   0.00000  Uiso   1.00
C558   C     0.81318   0.15209   0.20434   0.00000  Uiso   1.00
C559   C     0.74320   0.08970   0.20687   0.00000  Uiso   1.00
C560   C     0.72407   0.05854   0.23259   0.00000  Uiso   1.00
C561   C     0.66646   0.98739   0.26987   0.00000  Uiso   1.00
C562   C     0.83871   0.29728   0.18220   0.00000  Uiso   1.00
C563   C     0.79017   0.35695   0.16612   0.00000  Uiso   1.00
C564   C     0.79251   0.44803   0.17320   0.00000  Uiso   1.00
C565   C     0.77455   0.60230   0.17611   0.00000  Uiso   1.00
C566   C     0.93590   0.25060   0.21932   0.00000  Uiso   1.00
C567   C     0.99557   0.20386   0.19846   0.00000  Uiso   1.00
C568   C     0.08858   0.19090   0.20043   0.00000  Uiso   1.00
C569   C     0.13078   0.14660   0.17921   0.00000  Uiso   1.00
C570   C     0.86231   0.18231   0.22671   0.00000  Uiso   1.00
C571   C     0.84327   0.15124   0.25243   0.00000  Uiso   1.00
C572   C     0.77328   0.08881   0.25499   0.00000  Uiso   1.00
C573   C     0.88784   0.32750   0.20457   0.00000  Uiso   1.00
C574   C     0.89025   0.41850   0.21168   0.00000  Uiso   1.00
C575   C     0.84173   0.47830   0.19561   0.00000  Uiso   1.00
H576   H     0.80720   0.17144   0.16073   0.00000  Uiso   1.00
H577   H     0.95047   0.10597   0.13756   0.00000  Uiso   1.00
H578   H     0.70519   0.06633   0.18956   0.00000  Uiso   1.00
H579   H     0.75216   0.33354   0.14881   0.00000  Uiso   1.00
H580   H     0.13097   0.04669   0.12175   0.00000  Uiso   1.00
H581   H     0.61376   0.96312   0.23138   0.00000  Uiso   1.00
H582   H     0.71280   0.52659   0.14547   0.00000  Uiso   1.00
H583   H     0.97415   0.27412   0.23673   0.00000  Uiso   1.00
H584   H     0.12658   0.21429   0.21774   0.00000  Uiso   1.00
H585   H     0.88130   0.17465   0.26973   0.00000  Uiso   1.00
H586   H     0.92827   0.44186   0.22899   0.00000  Uiso   1.00
H587   H     0.27391   0.13460   0.18682   0.00000  Uiso   1.00
H588   H     0.75669   0.05103   0.29646   0.00000  Uiso   1.00
H589   H     0.85574   0.61450   0.21054   0.00000  Uiso   1.00
O590   O     0.29969   0.04941   0.14042   0.00000  Uiso   1.00
O591   O     0.62113   0.93978   0.28426   0.00000  Uiso   1.00
O592   O     0.75108   0.67904   0.17154   0.00000  Uiso   1.00
N593   N     0.14369   0.07561   0.13967   0.00000  Uiso   1.00
N594   N     0.66014   0.99746   0.24217   0.00000  Uiso   1.00
N595   N     0.75272   0.52426   0.16185   0.00000  Uiso   1.00
N596   N     0.22061   0.12291   0.17468   0.00000  Uiso   1.00
N597   N     0.73706   0.04477   0.27718   0.00000  Uiso   1.00
N598   N     0.82964   0.57156   0.19686   0.00000  Uiso   1.00
C599   C     0.34545   0.69497   0.67814   0.00000  Uiso   1.00
C600   C     0.44644   0.67364   0.67609   0.00000  Uiso   1.00
C601   C     0.48851   0.62936   0.65487   0.00000  Uiso   1.00
C602   C     0.58156   0.61633   0.65680   0.00000  Uiso   1.00
C603   C     0.73090   0.57858   0.65023   0.00000  Uiso   1.00
C604   C     0.31318   0.65209   0.70434   0.00000  Uiso   1.00
C605   C     0.24320   0.58970   0.70687   0.00000  Uiso   1.00
C606   C     0.22407   0.55854   0.73259   0.00000  Uiso   1.00
C607   C     0.16646   0.48739   0.76987   0.00000  Uiso   1.00
C608   C     0.33871   0.79728   0.68220   0.00000  Uiso   1.00
C609   C     0.29017   0.85695   0.66612   0.00000  Uiso   1.00
C610   C     0.29251   0.94803   0.67320   0.00000  Uiso   1.00
C611   C     0.27455   0.10230   0.67611   0.00000  Uiso   1.00
C612   C     0.43590   0.75060   0.71932   0.00000  Uiso   1.00
C613   C     0.49557   0.70386   0.69846   0.00000  Uiso   1.00
C614   C     0.58858   0.69090   0.70043   0.00000  Uiso   1.00
C615   C     0.63078   0.64660   0.67921   0.00000  Uiso   1.00
C616   C     0.36231   0.68231   0.72671   0.00000  Uiso   1.00
C617   C     0.34327   0.65124   0.75243   0.00000  Uiso   1.00
C618   C     0.27328   0.58881   0.75499   0.00000  Uiso   1.00
C619   C     0.38784   0.82750   0.70457   0.00000  Uiso   1.00
C620   C     0.39025   0.91850   0.71168   0.00000  Uiso   1.00
C621   C     0.34173   0.97830   0.69561   0.00000  Uiso   1.00
H622   H     0.30720   0.67144   0.66073   0.00000  Uiso   1.00
H623   H     0.45047   0.60597   0.63756   0.00000  Uiso   1.00
H624   H     0.20519   0.56633   0.68956   0.00000  Uiso   1.00
H625   H     0.25216   0.83354   0.64881   0.00000  Uiso   1.00
H626   H     0.63097   0.54669   0.62175   0.00000  Uiso   1.00
H627   H     0.11376   0.46312   0.73138   0.00000  Uiso   1.00
H628   H     0.21280   0.02659   0.64547   0.00000  Uiso   1.00
H629   H     0.47415   0.77412   0.73673   0.00000  Uiso   1.00
H630   H     0.62658   0.71429   0.71774   0.00000  Uiso   1.00
H631   H     0.38130   0.67465   0.76973   0.00000  Uiso   1.00
H632   H     0.42827   0.94186   0.72899   0.00000  Uiso   1.00
H633   H     0.77391   0.63460   0.68682   0.00000  Uiso   1.00
H634   H     0.25669   0.55103   0.79646   0.00000  Uiso   1.00
H635   H     0.35574   0.11450   0.71054   0.00000  Uiso   1.00
O636   O     0.79969   0.54941   0.64042   0.00000  Uiso   1.00
O637   O     0.12113   0.43978   0.78426   0.00000  Uiso   1.00
O638   O     0.25108   0.17904   0.67154   0.00000  Uiso   1.00
N639   N     0.64369   0.57561   0.63967   0.00000  Uiso   1.00
N640   N     0.16014   0.49746   0.74217   0.00000  Uiso   1.00
N641   N     0.25272   0.02426   0.66185   0.00000  Uiso   1.00
N642   N     0.72061   0.62291   0.67468   0.00000  Uiso   1.00
N643   N     0.23706   0.54477   0.77718   0.00000  Uiso   1.00
N644   N     0.32964   0.07156   0.69686   0.00000  Uiso   1.00
C645   C     0.65455   0.30503   0.67814   0.00000  Uiso   1.00
C646   C     0.55356   0.32636   0.67609   0.00000  Uiso   1.00
C647   C     0.51149   0.37064   0.65487   0.00000  Uiso   1.00
C648   C     0.41844   0.38367   0.65680   0.00000  Uiso   1.00
C649   C     0.26910   0.42142   0.65023   0.00000  Uiso   1.00
C650   C     0.68682   0.34791   0.70434   0.00000  Uiso   1.00
C651   C     0.75680   0.41030   0.70687   0.00000  Uiso   1.00
C652   C     0.77593   0.44146   0.73259   0.00000  Uiso   1.00
C653   C     0.83354   0.51261   0.76987   0.00000  Uiso   1.00
C654   C     0.66129   0.20272   0.68220   0.00000  Uiso   1.00
C655   C     0.70983   0.14305   0.66612   0.00000  Uiso   1.00
C656   C     0.70749   0.05197   0.67320   0.00000  Uiso   1.00
C657   C     0.72545   0.89770   0.67611   0.00000  Uiso   1.00
C658   C     0.56410   0.24940   0.71932   0.00000  Uiso   1.00
C659   C     0.50443   0.29614   0.69846   0.00000  Uiso   1.00
C660   C     0.41142   0.30910   0.70043   0.00000  Uiso   1.00
C661   C     0.36922   0.35340   0.67921   0.00000  Uiso   1.00
C662   C     0.63769   0.31769   0.72671   0.00000  Uiso   1.00
C663   C     0.65673   0.34876   0.75243   0.00000  Uiso   1.00
C664   C     0.72672   0.41119   0.75499   0.00000  Uiso   1.00
C665   C     0.61216   0.17250   0.70457   0.00000  Uiso   1.00
C666   C     0.60975   0.08150   0.71168   0.00000  Uiso   1.00
C667   C     0.65827   0.02170   0.69561   0.00000  Uiso   1.00
H668   H     0.69280   0.32856   0.66073   0.00000  Uiso   1.00
H669   H     0.54953   0.39403   0.63756   0.00000  Uiso   1.00
H670   H     0.79481   0.43367   0.68956   0.00000  Uiso   1.00
H671   H     0.74784   0.16646   0.64881   0.00000  Uiso   1.00
H672   H     0.36903   0.45331   0.62175   0.00000  Uiso   1.00
H673   H     0.88624   0.53688   0.73138   0.00000  Uiso   1.00
H674   H     0.78720   0.97341   0.64547   0.00000  Uiso   1.00
H675   H     0.52585   0.22588   0.73673   0.00000  Uiso   1.00
H676   H     0.37342   0.28571   0.71774   0.00000  Uiso   1.00
H677   H     0.61870   0.32535   0.76973   0.00000  Uiso   1.00
H678   H     0.57173   0.05814   0.72899   0.00000  Uiso   1.00
H679   H     0.22609   0.36540   0.68682   0.00000  Uiso   1.00
H680   H     0.74331   0.44897   0.79646   0.00000  Uiso   1.00
H681   H     0.64426   0.88550   0.71054   0.00000  Uiso   1.00
O682   O     0.20031   0.45059   0.64042   0.00000  Uiso   1.00
O683   O     0.87887   0.56022   0.78426   0.00000  Uiso   1.00
O684   O     0.74892   0.82096   0.67154   0.00000  Uiso   1.00
N685   N     0.35631   0.42439   0.63967   0.00000  Uiso   1.00
N686   N     0.83986   0.50254   0.74217   0.00000  Uiso   1.00
N687   N     0.74728   0.97574   0.66185   0.00000  Uiso   1.00
N688   N     0.27939   0.37709   0.67468   0.00000  Uiso   1.00
N689   N     0.76294   0.45523   0.77718   0.00000  Uiso   1.00
N690   N     0.67036   0.92844   0.69686   0.00000  Uiso   1.00
C691   C     0.15455   0.80503   0.17814   0.00000  Uiso   1.00
C692   C     0.05356   0.82636   0.17609   0.00000  Uiso   1.00
C693   C     0.01149   0.87064   0.15487   0.00000  Uiso   1.00
C694   C     0.91844   0.88367   0.15680   0.00000  Uiso   1.00
C695   C     0.76910   0.92142   0.15023   0.00000  Uiso   1.00
C696   C     0.18682   0.84791   0.20434   0.00000  Uiso   1.00
C697   C     0.25680   0.91030   0.20687   0.00000  Uiso   1.00
C698   C     0.27593   0.94146   0.23259   0.00000  Uiso   1.00
C699   C     0.33354   0.01261   0.26987   0.00000  Uiso   1.00
C700   C     0.16129   0.70272   0.18220   0.00000  Uiso   1.00
C701   C     0.20983   0.64305   0.16612   0.00000  Uiso   1.00
C702   C     0.20749   0.55197   0.17320   0.00000  Uiso   1.00
C703   C     0.22545   0.39770   0.17611   0.00000  Uiso   1.00
C704   C     0.06410   0.74940   0.21932   0.00000  Uiso   1.00
C705   C     0.00443   0.79614   0.19846   0.00000  Uiso   1.00
C706   C     0.91142   0.80910   0.20043   0.00000  Uiso   1.00
C707   C     0.86922   0.85340   0.17921   0.00000  Uiso   1.00
C708   C     0.13769   0.81769   0.22671   0.00000  Uiso   1.00
C709   C     0.15673   0.84876   0.25243   0.00000  Uiso   1.00
C710   C     0.22672   0.91119   0.25499   0.00000  Uiso   1.00
C711   C     0.11216   0.67250   0.20457   0.00000  Uiso   1.00
C712   C     0.10975   0.58150   0.21168   0.00000  Uiso   1.00
C713   C     0.15827   0.52170   0.19561   0.00000  Uiso   1.00
H714   H     0.19280   0.82856   0.16073   0.00000  Uiso   1.00
H715   H     0.04953   0.89403   0.13756   0.00000  Uiso   1.00
H716   H     0.29481   0.93367   0.18956   0.00000  Uiso   1.00
H717   H     0.24784   0.66646   0.14881   0.00000  Uiso   1.00
H718   H     0.86903   0.95331   0.12175   0.00000  Uiso   1.00
H719   H     0.38624   0.03688   0.23138   0.00000  Uiso   1.00
H720   H     0.28720   0.47341   0.14547   0.00000  Uiso   1.00
H721   H     0.02585   0.72588   0.23673   0.00000  Uiso   1.00
H722   H     0.87342   0.78571   0.21774   0.00000  Uiso   1.00
H723   H     0.11870   0.82535   0.26973   0.00000  Uiso   1.00
H724   H     0.07173   0.55814   0.22899   0.00000  Uiso   1.00
H725   H     0.72609   0.86540   0.18682   0.00000  Uiso   1.00
H726   H     0.24331   0.94897   0.29646   0.00000  Uiso   1.00
H727   H     0.14426   0.38550   0.21054   0.00000  Uiso   1.00
O728   O     0.70031   0.95059   0.14042   0.00000  Uiso   1.00
O729   O     0.37887   0.06022   0.28426   0.00000  Uiso   1.00
O730   O     0.24892   0.32096   0.17154   0.00000  Uiso   1.00
N731   N     0.85631   0.92439   0.13967   0.00000  Uiso   1.00
N732   N     0.33986   0.00254   0.24217   0.00000  Uiso   1.00
N733   N     0.24728   0.47574   0.16185   0.00000  Uiso   1.00
N734   N     0.77939   0.87709   0.17468   0.00000  Uiso   1.00
N735   N     0.26294   0.95523   0.27718   0.00000  Uiso   1.00
N736   N     0.17036   0.42844   0.19686   0.00000  Uiso   1.00
