data_job_03276
_audit_creation_date              2018-12-19
_audit_creation_method            'Materials Studio'
_symmetry_space_group_name_H-M    'P1'
_symmetry_Int_Tables_number       1
_symmetry_cell_setting            triclinic
loop_
_symmetry_equiv_pos_as_xyz
  x,y,z
_cell_length_a                    33.5049
_cell_length_b                    44.0950
_cell_length_c                    7.3063
_cell_angle_alpha                 90.0000
_cell_angle_beta                  90.0000
_cell_angle_gamma                 90.0000
loop_
_atom_site_label
_atom_site_type_symbol
_atom_site_fract_x
_atom_site_fract_y
_atom_site_fract_z
_atom_site_U_iso_or_equiv
_atom_site_adp_type
_atom_site_occupancy
C1     C     0.46029   0.14970   0.33805   0.00000  Uiso   1.00
C2     C     0.42930   0.15973   0.19764   0.00000  Uiso   1.00
C3     C     0.39727   0.17888   0.23121   0.00000  Uiso   1.00
C4     C     0.37230   0.18531   0.08458   0.00000  Uiso   1.00
C5     C     0.32314   0.20274   0.89302   0.00000  Uiso   1.00
C6     C     0.45946   0.11512   0.33764   0.00000  Uiso   1.00
C7     C     0.45279   0.09678   0.48894   0.00000  Uiso   1.00
C8     C     0.45321   0.06566   0.46015   0.00000  Uiso   1.00
C9     C     0.45090   0.01384   0.48598   0.00000  Uiso   1.00
C10    C     0.50075   0.15872   0.25951   0.00000  Uiso   1.00
C11    C     0.52879   0.17703   0.34514   0.00000  Uiso   1.00
C12    C     0.56398   0.18261   0.25060   0.00000  Uiso   1.00
C13    C     0.62577   0.19849   0.15512   0.00000  Uiso   1.00
C14    C     0.47292   0.12704   0.01793   0.00000  Uiso   1.00
C15    C     0.43617   0.14742   0.02376   0.00000  Uiso   1.00
C16    C     0.41125   0.15382   0.87704   0.00000  Uiso   1.00
C17    C     0.37918   0.17298   0.91039   0.00000  Uiso   1.00
C18    C     0.46632   0.10282   0.16377   0.00000  Uiso   1.00
C19    C     0.46676   0.07171   0.13476   0.00000  Uiso   1.00
C20    C     0.46009   0.05333   0.28596   0.00000  Uiso   1.00
C21    C     0.50761   0.14642   0.08563   0.00000  Uiso   1.00
C22    C     0.54276   0.15197   0.99095   0.00000  Uiso   1.00
C23    C     0.57086   0.17028   0.07641   0.00000  Uiso   1.00
H24    H     0.45494   0.15928   0.47343   0.00000  Uiso   1.00
H25    H     0.39197   0.18840   0.36580   0.00000  Uiso   1.00
H26    H     0.44748   0.10631   0.62348   0.00000  Uiso   1.00
H27    H     0.52347   0.18655   0.47969   0.00000  Uiso   1.00
H28    H     0.32516   0.21525   0.16981   0.00000  Uiso   1.00
H29    H     0.44223   0.04216   0.71315   0.00000  Uiso   1.00
H30    H     0.60247   0.21136   0.40996   0.00000  Uiso   1.00
H31    H     0.47826   0.11746   0.88256   0.00000  Uiso   1.00
H32    H     0.41656   0.14429   0.74249   0.00000  Uiso   1.00
H33    H     0.47208   0.06220   0.00018   0.00000  Uiso   1.00
H34    H     0.54806   0.14244   0.85640   0.00000  Uiso   1.00
H35    H     0.34512   0.17945   0.66392   0.00000  Uiso   1.00
H36    H     0.46220   0.00636   0.20726   0.00000  Uiso   1.00
H37    H     0.62243   0.17556   0.90407   0.00000  Uiso   1.00
O38    O     0.29413   0.21574   0.83540   0.00000  Uiso   1.00
O39    O     0.44773   0.98866   0.54826   0.00000  Uiso   1.00
O40    O     0.65795   0.21064   0.15048   0.00000  Uiso   1.00
N41    N     0.33833   0.20315   0.06996   0.00000  Uiso   1.00
N42    N     0.44778   0.04132   0.57795   0.00000  Uiso   1.00
N43    N     0.59759   0.19950   0.29451   0.00000  Uiso   1.00
N44    N     0.34907   0.18388   0.79774   0.00000  Uiso   1.00
N45    N     0.45852   0.02205   0.30573   0.00000  Uiso   1.00
N46    N     0.60833   0.18024   0.02229   0.00000  Uiso   1.00
C47    C     0.46029   0.64970   0.83805   0.00000  Uiso   1.00
C48    C     0.42930   0.65973   0.69764   0.00000  Uiso   1.00
C49    C     0.39727   0.67888   0.73121   0.00000  Uiso   1.00
C50    C     0.37230   0.68531   0.58458   0.00000  Uiso   1.00
C51    C     0.32314   0.70274   0.39302   0.00000  Uiso   1.00
C52    C     0.45946   0.61512   0.83764   0.00000  Uiso   1.00
C53    C     0.45279   0.59678   0.98894   0.00000  Uiso   1.00
C54    C     0.45321   0.56566   0.96015   0.00000  Uiso   1.00
C55    C     0.45090   0.51384   0.98598   0.00000  Uiso   1.00
C56    C     0.50075   0.65872   0.75951   0.00000  Uiso   1.00
C57    C     0.52879   0.67703   0.84514   0.00000  Uiso   1.00
C58    C     0.56398   0.68261   0.75060   0.00000  Uiso   1.00
C59    C     0.62577   0.69849   0.65512   0.00000  Uiso   1.00
C60    C     0.47292   0.62704   0.51793   0.00000  Uiso   1.00
C61    C     0.43617   0.64742   0.52376   0.00000  Uiso   1.00
C62    C     0.41125   0.65382   0.37704   0.00000  Uiso   1.00
C63    C     0.37918   0.67298   0.41039   0.00000  Uiso   1.00
C64    C     0.46632   0.60282   0.66377   0.00000  Uiso   1.00
C65    C     0.46676   0.57171   0.63476   0.00000  Uiso   1.00
C66    C     0.46009   0.55333   0.78596   0.00000  Uiso   1.00
C67    C     0.50761   0.64642   0.58563   0.00000  Uiso   1.00
C68    C     0.54276   0.65197   0.49095   0.00000  Uiso   1.00
C69    C     0.57086   0.67028   0.57641   0.00000  Uiso   1.00
H70    H     0.45494   0.65928   0.97343   0.00000  Uiso   1.00
H71    H     0.39197   0.68840   0.86580   0.00000  Uiso   1.00
H72    H     0.44748   0.60631   0.12348   0.00000  Uiso   1.00
H73    H     0.52347   0.68655   0.97969   0.00000  Uiso   1.00
H74    H     0.32516   0.71525   0.66981   0.00000  Uiso   1.00
H75    H     0.44223   0.54216   0.21315   0.00000  Uiso   1.00
H76    H     0.60247   0.71136   0.90996   0.00000  Uiso   1.00
H77    H     0.47826   0.61746   0.38256   0.00000  Uiso   1.00
H78    H     0.41656   0.64429   0.24249   0.00000  Uiso   1.00
H79    H     0.47208   0.56220   0.50018   0.00000  Uiso   1.00
H80    H     0.54806   0.64244   0.35640   0.00000  Uiso   1.00
H81    H     0.34512   0.67945   0.16392   0.00000  Uiso   1.00
H82    H     0.46220   0.50636   0.70726   0.00000  Uiso   1.00
H83    H     0.62243   0.67556   0.40407   0.00000  Uiso   1.00
O84    O     0.29413   0.71574   0.33540   0.00000  Uiso   1.00
O85    O     0.44773   0.48866   0.04826   0.00000  Uiso   1.00
O86    O     0.65795   0.71064   0.65048   0.00000  Uiso   1.00
N87    N     0.33833   0.70315   0.56996   0.00000  Uiso   1.00
N88    N     0.44778   0.54132   0.07795   0.00000  Uiso   1.00
N89    N     0.59759   0.69950   0.79451   0.00000  Uiso   1.00
N90    N     0.34907   0.68388   0.29774   0.00000  Uiso   1.00
N91    N     0.45852   0.52205   0.80573   0.00000  Uiso   1.00
N92    N     0.60833   0.68024   0.52229   0.00000  Uiso   1.00
C93    C     0.96029   0.14970   0.83805   0.00000  Uiso   1.00
C94    C     0.92930   0.15973   0.69764   0.00000  Uiso   1.00
C95    C     0.89727   0.17888   0.73121   0.00000  Uiso   1.00
C96    C     0.87230   0.18531   0.58458   0.00000  Uiso   1.00
C97    C     0.82314   0.20274   0.39302   0.00000  Uiso   1.00
C98    C     0.95946   0.11512   0.83764   0.00000  Uiso   1.00
C99    C     0.95279   0.09678   0.98894   0.00000  Uiso   1.00
C100   C     0.95321   0.06566   0.96015   0.00000  Uiso   1.00
C101   C     0.95090   0.01384   0.98598   0.00000  Uiso   1.00
C102   C     0.00075   0.15872   0.75951   0.00000  Uiso   1.00
C103   C     0.02879   0.17703   0.84514   0.00000  Uiso   1.00
C104   C     0.06398   0.18261   0.75060   0.00000  Uiso   1.00
C105   C     0.12577   0.19849   0.65512   0.00000  Uiso   1.00
C106   C     0.97292   0.12704   0.51793   0.00000  Uiso   1.00
C107   C     0.93617   0.14742   0.52376   0.00000  Uiso   1.00
C108   C     0.91125   0.15382   0.37704   0.00000  Uiso   1.00
C109   C     0.87918   0.17298   0.41039   0.00000  Uiso   1.00
C110   C     0.96632   0.10282   0.66377   0.00000  Uiso   1.00
C111   C     0.96676   0.07171   0.63476   0.00000  Uiso   1.00
C112   C     0.96009   0.05333   0.78596   0.00000  Uiso   1.00
C113   C     0.00761   0.14642   0.58563   0.00000  Uiso   1.00
C114   C     0.04276   0.15197   0.49095   0.00000  Uiso   1.00
C115   C     0.07086   0.17028   0.57641   0.00000  Uiso   1.00
H116   H     0.95494   0.15928   0.97343   0.00000  Uiso   1.00
H117   H     0.89197   0.18840   0.86580   0.00000  Uiso   1.00
H118   H     0.94748   0.10631   0.12348   0.00000  Uiso   1.00
H119   H     0.02347   0.18655   0.97969   0.00000  Uiso   1.00
H120   H     0.82516   0.21525   0.66981   0.00000  Uiso   1.00
H121   H     0.94223   0.04216   0.21315   0.00000  Uiso   1.00
H122   H     0.10247   0.21136   0.90996   0.00000  Uiso   1.00
H123   H     0.97826   0.11746   0.38256   0.00000  Uiso   1.00
H124   H     0.91656   0.14429   0.24249   0.00000  Uiso   1.00
H125   H     0.97208   0.06220   0.50018   0.00000  Uiso   1.00
H126   H     0.04806   0.14244   0.35640   0.00000  Uiso   1.00
H127   H     0.84512   0.17945   0.16392   0.00000  Uiso   1.00
H128   H     0.96220   0.00636   0.70726   0.00000  Uiso   1.00
H129   H     0.12243   0.17556   0.40407   0.00000  Uiso   1.00
O130   O     0.79413   0.21574   0.33540   0.00000  Uiso   1.00
O131   O     0.94773   0.98866   0.04826   0.00000  Uiso   1.00
O132   O     0.15795   0.21064   0.65048   0.00000  Uiso   1.00
N133   N     0.83833   0.20315   0.56996   0.00000  Uiso   1.00
N134   N     0.94778   0.04132   0.07795   0.00000  Uiso   1.00
N135   N     0.09759   0.19950   0.79451   0.00000  Uiso   1.00
N136   N     0.84907   0.18388   0.29774   0.00000  Uiso   1.00
N137   N     0.95852   0.02205   0.80573   0.00000  Uiso   1.00
N138   N     0.10833   0.18024   0.52229   0.00000  Uiso   1.00
C139   C     0.96029   0.64970   0.33805   0.00000  Uiso   1.00
C140   C     0.92930   0.65973   0.19764   0.00000  Uiso   1.00
C141   C     0.89727   0.67888   0.23121   0.00000  Uiso   1.00
C142   C     0.87230   0.68531   0.08458   0.00000  Uiso   1.00
C143   C     0.82314   0.70274   0.89302   0.00000  Uiso   1.00
C144   C     0.95946   0.61512   0.33764   0.00000  Uiso   1.00
C145   C     0.95279   0.59678   0.48894   0.00000  Uiso   1.00
C146   C     0.95321   0.56566   0.46015   0.00000  Uiso   1.00
C147   C     0.95090   0.51384   0.48598   0.00000  Uiso   1.00
C148   C     0.00075   0.65872   0.25951   0.00000  Uiso   1.00
C149   C     0.02879   0.67703   0.34514   0.00000  Uiso   1.00
C150   C     0.06398   0.68261   0.25060   0.00000  Uiso   1.00
C151   C     0.12577   0.69849   0.15512   0.00000  Uiso   1.00
C152   C     0.97292   0.62704   0.01793   0.00000  Uiso   1.00
C153   C     0.93617   0.64742   0.02376   0.00000  Uiso   1.00
C154   C     0.91125   0.65382   0.87704   0.00000  Uiso   1.00
C155   C     0.87918   0.67298   0.91039   0.00000  Uiso   1.00
C156   C     0.96632   0.60282   0.16377   0.00000  Uiso   1.00
C157   C     0.96676   0.57171   0.13476   0.00000  Uiso   1.00
C158   C     0.96009   0.55333   0.28596   0.00000  Uiso   1.00
C159   C     0.00761   0.64642   0.08563   0.00000  Uiso   1.00
C160   C     0.04276   0.65197   0.99095   0.00000  Uiso   1.00
C161   C     0.07086   0.67028   0.07641   0.00000  Uiso   1.00
H162   H     0.95494   0.65928   0.47343   0.00000  Uiso   1.00
H163   H     0.89197   0.68840   0.36580   0.00000  Uiso   1.00
H164   H     0.94748   0.60631   0.62348   0.00000  Uiso   1.00
H165   H     0.02347   0.68655   0.47969   0.00000  Uiso   1.00
H166   H     0.82516   0.71525   0.16981   0.00000  Uiso   1.00
H167   H     0.94223   0.54216   0.71315   0.00000  Uiso   1.00
H168   H     0.10247   0.71136   0.40996   0.00000  Uiso   1.00
H169   H     0.97826   0.61746   0.88256   0.00000  Uiso   1.00
H170   H     0.91656   0.64429   0.74249   0.00000  Uiso   1.00
H171   H     0.97208   0.56220   0.00018   0.00000  Uiso   1.00
H172   H     0.04806   0.64244   0.85640   0.00000  Uiso   1.00
H173   H     0.84512   0.67945   0.66392   0.00000  Uiso   1.00
H174   H     0.96220   0.50636   0.20726   0.00000  Uiso   1.00
H175   H     0.12243   0.67556   0.90407   0.00000  Uiso   1.00
O176   O     0.79413   0.71574   0.83540   0.00000  Uiso   1.00
O177   O     0.94773   0.48866   0.54826   0.00000  Uiso   1.00
O178   O     0.15795   0.71064   0.15048   0.00000  Uiso   1.00
N179   N     0.83833   0.70315   0.06996   0.00000  Uiso   1.00
N180   N     0.94778   0.54132   0.57795   0.00000  Uiso   1.00
N181   N     0.09759   0.69950   0.29451   0.00000  Uiso   1.00
N182   N     0.84907   0.68388   0.79774   0.00000  Uiso   1.00
N183   N     0.95852   0.52205   0.30573   0.00000  Uiso   1.00
N184   N     0.10833   0.68024   0.02229   0.00000  Uiso   1.00
C185   C     0.53971   0.85030   0.33805   0.00000  Uiso   1.00
C186   C     0.57070   0.84027   0.19764   0.00000  Uiso   1.00
C187   C     0.60273   0.82112   0.23121   0.00000  Uiso   1.00
C188   C     0.62770   0.81469   0.08458   0.00000  Uiso   1.00
C189   C     0.67686   0.79726   0.89302   0.00000  Uiso   1.00
C190   C     0.54054   0.88488   0.33764   0.00000  Uiso   1.00
C191   C     0.54721   0.90322   0.48894   0.00000  Uiso   1.00
C192   C     0.54679   0.93434   0.46015   0.00000  Uiso   1.00
C193   C     0.54910   0.98616   0.48598   0.00000  Uiso   1.00
C194   C     0.49925   0.84128   0.25951   0.00000  Uiso   1.00
C195   C     0.47121   0.82297   0.34514   0.00000  Uiso   1.00
C196   C     0.43602   0.81739   0.25060   0.00000  Uiso   1.00
C197   C     0.37423   0.80151   0.15512   0.00000  Uiso   1.00
C198   C     0.52708   0.87296   0.01793   0.00000  Uiso   1.00
C199   C     0.56383   0.85258   0.02376   0.00000  Uiso   1.00
C200   C     0.58875   0.84618   0.87704   0.00000  Uiso   1.00
C201   C     0.62082   0.82702   0.91039   0.00000  Uiso   1.00
C202   C     0.53368   0.89718   0.16377   0.00000  Uiso   1.00
C203   C     0.53324   0.92829   0.13476   0.00000  Uiso   1.00
C204   C     0.53991   0.94667   0.28596   0.00000  Uiso   1.00
C205   C     0.49239   0.85358   0.08563   0.00000  Uiso   1.00
C206   C     0.45724   0.84803   0.99095   0.00000  Uiso   1.00
C207   C     0.42914   0.82972   0.07641   0.00000  Uiso   1.00
H208   H     0.54506   0.84072   0.47343   0.00000  Uiso   1.00
H209   H     0.60803   0.81160   0.36580   0.00000  Uiso   1.00
H210   H     0.55252   0.89369   0.62348   0.00000  Uiso   1.00
H211   H     0.47653   0.81345   0.47969   0.00000  Uiso   1.00
H212   H     0.67484   0.78475   0.16981   0.00000  Uiso   1.00
H213   H     0.55777   0.95784   0.71315   0.00000  Uiso   1.00
H214   H     0.39753   0.78864   0.40996   0.00000  Uiso   1.00
H215   H     0.52174   0.88254   0.88256   0.00000  Uiso   1.00
H216   H     0.58344   0.85571   0.74249   0.00000  Uiso   1.00
H217   H     0.52792   0.93780   0.00018   0.00000  Uiso   1.00
H218   H     0.45194   0.85756   0.85640   0.00000  Uiso   1.00
H219   H     0.65488   0.82055   0.66392   0.00000  Uiso   1.00
H220   H     0.53780   0.99364   0.20726   0.00000  Uiso   1.00
H221   H     0.37757   0.82444   0.90407   0.00000  Uiso   1.00
O222   O     0.70587   0.78426   0.83540   0.00000  Uiso   1.00
O223   O     0.55227   0.01134   0.54826   0.00000  Uiso   1.00
O224   O     0.34205   0.78936   0.15048   0.00000  Uiso   1.00
N225   N     0.66167   0.79685   0.06996   0.00000  Uiso   1.00
N226   N     0.55222   0.95868   0.57795   0.00000  Uiso   1.00
N227   N     0.40241   0.80050   0.29451   0.00000  Uiso   1.00
N228   N     0.65093   0.81612   0.79774   0.00000  Uiso   1.00
N229   N     0.54148   0.97795   0.30573   0.00000  Uiso   1.00
N230   N     0.39167   0.81976   0.02229   0.00000  Uiso   1.00
C231   C     0.53971   0.35030   0.83805   0.00000  Uiso   1.00
C232   C     0.57070   0.34027   0.69764   0.00000  Uiso   1.00
C233   C     0.60273   0.32112   0.73121   0.00000  Uiso   1.00
C234   C     0.62770   0.31469   0.58458   0.00000  Uiso   1.00
C235   C     0.67686   0.29726   0.39302   0.00000  Uiso   1.00
C236   C     0.54054   0.38488   0.83764   0.00000  Uiso   1.00
C237   C     0.54721   0.40322   0.98894   0.00000  Uiso   1.00
C238   C     0.54679   0.43434   0.96015   0.00000  Uiso   1.00
C239   C     0.54910   0.48616   0.98598   0.00000  Uiso   1.00
C240   C     0.49925   0.34128   0.75951   0.00000  Uiso   1.00
C241   C     0.47121   0.32297   0.84514   0.00000  Uiso   1.00
C242   C     0.43602   0.31739   0.75060   0.00000  Uiso   1.00
C243   C     0.37423   0.30151   0.65512   0.00000  Uiso   1.00
C244   C     0.52708   0.37296   0.51793   0.00000  Uiso   1.00
C245   C     0.56383   0.35258   0.52376   0.00000  Uiso   1.00
C246   C     0.58875   0.34618   0.37704   0.00000  Uiso   1.00
C247   C     0.62082   0.32702   0.41039   0.00000  Uiso   1.00
C248   C     0.53368   0.39718   0.66377   0.00000  Uiso   1.00
C249   C     0.53324   0.42829   0.63476   0.00000  Uiso   1.00
C250   C     0.53991   0.44667   0.78596   0.00000  Uiso   1.00
C251   C     0.49239   0.35358   0.58563   0.00000  Uiso   1.00
C252   C     0.45724   0.34803   0.49095   0.00000  Uiso   1.00
C253   C     0.42914   0.32972   0.57641   0.00000  Uiso   1.00
H254   H     0.54506   0.34072   0.97343   0.00000  Uiso   1.00
H255   H     0.60803   0.31160   0.86580   0.00000  Uiso   1.00
H256   H     0.55252   0.39369   0.12348   0.00000  Uiso   1.00
H257   H     0.47653   0.31345   0.97969   0.00000  Uiso   1.00
H258   H     0.67484   0.28475   0.66981   0.00000  Uiso   1.00
H259   H     0.55777   0.45784   0.21315   0.00000  Uiso   1.00
H260   H     0.39753   0.28864   0.90996   0.00000  Uiso   1.00
H261   H     0.52174   0.38254   0.38256   0.00000  Uiso   1.00
H262   H     0.58344   0.35571   0.24249   0.00000  Uiso   1.00
H263   H     0.52792   0.43780   0.50018   0.00000  Uiso   1.00
H264   H     0.45194   0.35756   0.35640   0.00000  Uiso   1.00
H265   H     0.65488   0.32055   0.16392   0.00000  Uiso   1.00
H266   H     0.53780   0.49364   0.70726   0.00000  Uiso   1.00
H267   H     0.37757   0.32444   0.40407   0.00000  Uiso   1.00
O268   O     0.70587   0.28426   0.33540   0.00000  Uiso   1.00
O269   O     0.55227   0.51134   0.04826   0.00000  Uiso   1.00
O270   O     0.34205   0.28936   0.65048   0.00000  Uiso   1.00
N271   N     0.66167   0.29685   0.56996   0.00000  Uiso   1.00
N272   N     0.55222   0.45868   0.07795   0.00000  Uiso   1.00
N273   N     0.40241   0.30050   0.79451   0.00000  Uiso   1.00
N274   N     0.65093   0.31612   0.29774   0.00000  Uiso   1.00
N275   N     0.54148   0.47795   0.80573   0.00000  Uiso   1.00
N276   N     0.39167   0.31976   0.52229   0.00000  Uiso   1.00
C277   C     0.03971   0.85030   0.83805   0.00000  Uiso   1.00
C278   C     0.07070   0.84027   0.69764   0.00000  Uiso   1.00
C279   C     0.10273   0.82112   0.73121   0.00000  Uiso   1.00
C280   C     0.12770   0.81469   0.58458   0.00000  Uiso   1.00
C281   C     0.17686   0.79726   0.39302   0.00000  Uiso   1.00
C282   C     0.04054   0.88488   0.83764   0.00000  Uiso   1.00
C283   C     0.04721   0.90322   0.98894   0.00000  Uiso   1.00
C284   C     0.04679   0.93434   0.96015   0.00000  Uiso   1.00
C285   C     0.04910   0.98616   0.98598   0.00000  Uiso   1.00
C286   C     0.99925   0.84128   0.75951   0.00000  Uiso   1.00
C287   C     0.97121   0.82297   0.84514   0.00000  Uiso   1.00
C288   C     0.93602   0.81739   0.75060   0.00000  Uiso   1.00
C289   C     0.87423   0.80151   0.65512   0.00000  Uiso   1.00
C290   C     0.02708   0.87296   0.51793   0.00000  Uiso   1.00
C291   C     0.06383   0.85258   0.52376   0.00000  Uiso   1.00
C292   C     0.08875   0.84618   0.37704   0.00000  Uiso   1.00
C293   C     0.12082   0.82702   0.41039   0.00000  Uiso   1.00
C294   C     0.03368   0.89718   0.66377   0.00000  Uiso   1.00
C295   C     0.03324   0.92829   0.63476   0.00000  Uiso   1.00
C296   C     0.03991   0.94667   0.78596   0.00000  Uiso   1.00
C297   C     0.99239   0.85358   0.58563   0.00000  Uiso   1.00
C298   C     0.95724   0.84803   0.49095   0.00000  Uiso   1.00
C299   C     0.92914   0.82972   0.57641   0.00000  Uiso   1.00
H300   H     0.04506   0.84072   0.97343   0.00000  Uiso   1.00
H301   H     0.10803   0.81160   0.86580   0.00000  Uiso   1.00
H302   H     0.05252   0.89369   0.12348   0.00000  Uiso   1.00
H303   H     0.97653   0.81345   0.97969   0.00000  Uiso   1.00
H304   H     0.17484   0.78475   0.66981   0.00000  Uiso   1.00
H305   H     0.05777   0.95784   0.21315   0.00000  Uiso   1.00
H306   H     0.89753   0.78864   0.90996   0.00000  Uiso   1.00
H307   H     0.02174   0.88254   0.38256   0.00000  Uiso   1.00
H308   H     0.08344   0.85571   0.24249   0.00000  Uiso   1.00
H309   H     0.02792   0.93780   0.50018   0.00000  Uiso   1.00
H310   H     0.95194   0.85756   0.35640   0.00000  Uiso   1.00
H311   H     0.15488   0.82055   0.16392   0.00000  Uiso   1.00
H312   H     0.03780   0.99364   0.70726   0.00000  Uiso   1.00
H313   H     0.87757   0.82444   0.40407   0.00000  Uiso   1.00
O314   O     0.20587   0.78426   0.33540   0.00000  Uiso   1.00
O315   O     0.05227   0.01134   0.04826   0.00000  Uiso   1.00
O316   O     0.84205   0.78936   0.65048   0.00000  Uiso   1.00
N317   N     0.16167   0.79685   0.56996   0.00000  Uiso   1.00
N318   N     0.05222   0.95868   0.07795   0.00000  Uiso   1.00
N319   N     0.90241   0.80050   0.79451   0.00000  Uiso   1.00
N320   N     0.15093   0.81612   0.29774   0.00000  Uiso   1.00
N321   N     0.04148   0.97795   0.80573   0.00000  Uiso   1.00
N322   N     0.89167   0.81976   0.52229   0.00000  Uiso   1.00
C323   C     0.03971   0.35030   0.33805   0.00000  Uiso   1.00
C324   C     0.07070   0.34027   0.19764   0.00000  Uiso   1.00
C325   C     0.10273   0.32112   0.23121   0.00000  Uiso   1.00
C326   C     0.12770   0.31469   0.08458   0.00000  Uiso   1.00
C327   C     0.17686   0.29726   0.89302   0.00000  Uiso   1.00
C328   C     0.04054   0.38488   0.33764   0.00000  Uiso   1.00
C329   C     0.04721   0.40322   0.48894   0.00000  Uiso   1.00
C330   C     0.04679   0.43434   0.46015   0.00000  Uiso   1.00
C331   C     0.04910   0.48616   0.48598   0.00000  Uiso   1.00
C332   C     0.99925   0.34128   0.25951   0.00000  Uiso   1.00
C333   C     0.97121   0.32297   0.34514   0.00000  Uiso   1.00
C334   C     0.93602   0.31739   0.25060   0.00000  Uiso   1.00
C335   C     0.87423   0.30151   0.15512   0.00000  Uiso   1.00
C336   C     0.02708   0.37296   0.01793   0.00000  Uiso   1.00
C337   C     0.06383   0.35258   0.02376   0.00000  Uiso   1.00
C338   C     0.08875   0.34618   0.87704   0.00000  Uiso   1.00
C339   C     0.12082   0.32702   0.91039   0.00000  Uiso   1.00
C340   C     0.03368   0.39718   0.16377   0.00000  Uiso   1.00
C341   C     0.03324   0.42829   0.13476   0.00000  Uiso   1.00
C342   C     0.03991   0.44667   0.28596   0.00000  Uiso   1.00
C343   C     0.99239   0.35358   0.08563   0.00000  Uiso   1.00
C344   C     0.95724   0.34803   0.99095   0.00000  Uiso   1.00
C345   C     0.92914   0.32972   0.07641   0.00000  Uiso   1.00
H346   H     0.04506   0.34072   0.47343   0.00000  Uiso   1.00
H347   H     0.10803   0.31160   0.36580   0.00000  Uiso   1.00
H348   H     0.05252   0.39369   0.62348   0.00000  Uiso   1.00
H349   H     0.97653   0.31345   0.47969   0.00000  Uiso   1.00
H350   H     0.17484   0.28475   0.16981   0.00000  Uiso   1.00
H351   H     0.05777   0.45784   0.71315   0.00000  Uiso   1.00
H352   H     0.89753   0.28864   0.40996   0.00000  Uiso   1.00
H353   H     0.02174   0.38254   0.88256   0.00000  Uiso   1.00
H354   H     0.08344   0.35571   0.74249   0.00000  Uiso   1.00
H355   H     0.02792   0.43780   0.00018   0.00000  Uiso   1.00
H356   H     0.95194   0.35756   0.85640   0.00000  Uiso   1.00
H357   H     0.15488   0.32055   0.66392   0.00000  Uiso   1.00
H358   H     0.03780   0.49364   0.20726   0.00000  Uiso   1.00
H359   H     0.87757   0.32444   0.90407   0.00000  Uiso   1.00
O360   O     0.20587   0.28426   0.83540   0.00000  Uiso   1.00
O361   O     0.05227   0.51134   0.54826   0.00000  Uiso   1.00
O362   O     0.84205   0.28936   0.15048   0.00000  Uiso   1.00
N363   N     0.16167   0.29685   0.06996   0.00000  Uiso   1.00
N364   N     0.05222   0.45868   0.57795   0.00000  Uiso   1.00
N365   N     0.90241   0.30050   0.29451   0.00000  Uiso   1.00
N366   N     0.15093   0.31612   0.79774   0.00000  Uiso   1.00
N367   N     0.04148   0.47795   0.30573   0.00000  Uiso   1.00
N368   N     0.89167   0.31976   0.02229   0.00000  Uiso   1.00
C369   C     0.71029   0.10030   0.58805   0.00000  Uiso   1.00
C370   C     0.67930   0.09027   0.44764   0.00000  Uiso   1.00
C371   C     0.64727   0.07112   0.48121   0.00000  Uiso   1.00
C372   C     0.62230   0.06469   0.33458   0.00000  Uiso   1.00
C373   C     0.57314   0.04726   0.14302   0.00000  Uiso   1.00
C374   C     0.70946   0.13488   0.58764   0.00000  Uiso   1.00
C375   C     0.70279   0.15322   0.73894   0.00000  Uiso   1.00
C376   C     0.70321   0.18434   0.71015   0.00000  Uiso   1.00
C377   C     0.70090   0.23616   0.73598   0.00000  Uiso   1.00
C378   C     0.75075   0.09128   0.50951   0.00000  Uiso   1.00
C379   C     0.77879   0.07297   0.59514   0.00000  Uiso   1.00
C380   C     0.81398   0.06739   0.50060   0.00000  Uiso   1.00
C381   C     0.87577   0.05151   0.40512   0.00000  Uiso   1.00
C382   C     0.72292   0.12296   0.26793   0.00000  Uiso   1.00
C383   C     0.68617   0.10258   0.27376   0.00000  Uiso   1.00
C384   C     0.66125   0.09618   0.12704   0.00000  Uiso   1.00
C385   C     0.62918   0.07702   0.16039   0.00000  Uiso   1.00
C386   C     0.71632   0.14718   0.41377   0.00000  Uiso   1.00
C387   C     0.71676   0.17829   0.38476   0.00000  Uiso   1.00
C388   C     0.71009   0.19667   0.53596   0.00000  Uiso   1.00
C389   C     0.75761   0.10358   0.33563   0.00000  Uiso   1.00
C390   C     0.79276   0.09803   0.24095   0.00000  Uiso   1.00
C391   C     0.82086   0.07972   0.32641   0.00000  Uiso   1.00
H392   H     0.70494   0.09072   0.72343   0.00000  Uiso   1.00
H393   H     0.64197   0.06160   0.61580   0.00000  Uiso   1.00
H394   H     0.69748   0.14369   0.87348   0.00000  Uiso   1.00
H395   H     0.77347   0.06345   0.72969   0.00000  Uiso   1.00
H396   H     0.57516   0.03475   0.41981   0.00000  Uiso   1.00
H397   H     0.69223   0.20784   0.96315   0.00000  Uiso   1.00
H398   H     0.85247   0.03864   0.65996   0.00000  Uiso   1.00
H399   H     0.72826   0.13254   0.13256   0.00000  Uiso   1.00
H400   H     0.66656   0.10571   0.99249   0.00000  Uiso   1.00
H401   H     0.72208   0.18780   0.25018   0.00000  Uiso   1.00
H402   H     0.79806   0.10756   0.10640   0.00000  Uiso   1.00
H403   H     0.59512   0.07055   0.91392   0.00000  Uiso   1.00
H404   H     0.71220   0.24364   0.45726   0.00000  Uiso   1.00
H405   H     0.87243   0.07444   0.15407   0.00000  Uiso   1.00
O406   O     0.54413   0.03426   0.08540   0.00000  Uiso   1.00
O407   O     0.69773   0.26134   0.79826   0.00000  Uiso   1.00
O408   O     0.90795   0.03936   0.40048   0.00000  Uiso   1.00
N409   N     0.58833   0.04685   0.31996   0.00000  Uiso   1.00
N410   N     0.69778   0.20868   0.82795   0.00000  Uiso   1.00
N411   N     0.84759   0.05050   0.54451   0.00000  Uiso   1.00
N412   N     0.59907   0.06612   0.04774   0.00000  Uiso   1.00
N413   N     0.70852   0.22795   0.55573   0.00000  Uiso   1.00
N414   N     0.85833   0.06976   0.27229   0.00000  Uiso   1.00
C415   C     0.71029   0.60030   0.08805   0.00000  Uiso   1.00
C416   C     0.67930   0.59027   0.94764   0.00000  Uiso   1.00
C417   C     0.64727   0.57112   0.98121   0.00000  Uiso   1.00
C418   C     0.62230   0.56469   0.83458   0.00000  Uiso   1.00
C419   C     0.57314   0.54726   0.64302   0.00000  Uiso   1.00
C420   C     0.70946   0.63488   0.08764   0.00000  Uiso   1.00
C421   C     0.70279   0.65322   0.23894   0.00000  Uiso   1.00
C422   C     0.70321   0.68434   0.21015   0.00000  Uiso   1.00
C423   C     0.70090   0.73616   0.23598   0.00000  Uiso   1.00
C424   C     0.75075   0.59128   0.00951   0.00000  Uiso   1.00
C425   C     0.77879   0.57297   0.09514   0.00000  Uiso   1.00
C426   C     0.81398   0.56739   0.00060   0.00000  Uiso   1.00
C427   C     0.87577   0.55151   0.90512   0.00000  Uiso   1.00
C428   C     0.72292   0.62296   0.76793   0.00000  Uiso   1.00
C429   C     0.68617   0.60258   0.77376   0.00000  Uiso   1.00
C430   C     0.66125   0.59618   0.62704   0.00000  Uiso   1.00
C431   C     0.62918   0.57702   0.66039   0.00000  Uiso   1.00
C432   C     0.71632   0.64718   0.91377   0.00000  Uiso   1.00
C433   C     0.71676   0.67829   0.88476   0.00000  Uiso   1.00
C434   C     0.71009   0.69667   0.03596   0.00000  Uiso   1.00
C435   C     0.75761   0.60358   0.83563   0.00000  Uiso   1.00
C436   C     0.79276   0.59803   0.74095   0.00000  Uiso   1.00
C437   C     0.82086   0.57972   0.82641   0.00000  Uiso   1.00
H438   H     0.70494   0.59072   0.22343   0.00000  Uiso   1.00
H439   H     0.64197   0.56160   0.11580   0.00000  Uiso   1.00
H440   H     0.69748   0.64369   0.37348   0.00000  Uiso   1.00
H441   H     0.77347   0.56345   0.22969   0.00000  Uiso   1.00
H442   H     0.57516   0.53475   0.91981   0.00000  Uiso   1.00
H443   H     0.69223   0.70784   0.46315   0.00000  Uiso   1.00
H444   H     0.85247   0.53864   0.15996   0.00000  Uiso   1.00
H445   H     0.72826   0.63254   0.63256   0.00000  Uiso   1.00
H446   H     0.66656   0.60571   0.49249   0.00000  Uiso   1.00
H447   H     0.72208   0.68780   0.75018   0.00000  Uiso   1.00
H448   H     0.79806   0.60756   0.60640   0.00000  Uiso   1.00
H449   H     0.59512   0.57055   0.41392   0.00000  Uiso   1.00
H450   H     0.71220   0.74364   0.95726   0.00000  Uiso   1.00
H451   H     0.87243   0.57444   0.65407   0.00000  Uiso   1.00
O452   O     0.54413   0.53426   0.58540   0.00000  Uiso   1.00
O453   O     0.69773   0.76134   0.29826   0.00000  Uiso   1.00
O454   O     0.90795   0.53936   0.90048   0.00000  Uiso   1.00
N455   N     0.58833   0.54685   0.81996   0.00000  Uiso   1.00
N456   N     0.69778   0.70868   0.32795   0.00000  Uiso   1.00
N457   N     0.84759   0.55050   0.04451   0.00000  Uiso   1.00
N458   N     0.59907   0.56612   0.54774   0.00000  Uiso   1.00
N459   N     0.70852   0.72795   0.05573   0.00000  Uiso   1.00
N460   N     0.85833   0.56976   0.77229   0.00000  Uiso   1.00
C461   C     0.21029   0.10030   0.08805   0.00000  Uiso   1.00
C462   C     0.17930   0.09027   0.94764   0.00000  Uiso   1.00
C463   C     0.14727   0.07112   0.98121   0.00000  Uiso   1.00
C464   C     0.12230   0.06469   0.83458   0.00000  Uiso   1.00
C465   C     0.07314   0.04726   0.64302   0.00000  Uiso   1.00
C466   C     0.20946   0.13488   0.08764   0.00000  Uiso   1.00
C467   C     0.20279   0.15322   0.23894   0.00000  Uiso   1.00
C468   C     0.20321   0.18434   0.21015   0.00000  Uiso   1.00
C469   C     0.20090   0.23616   0.23598   0.00000  Uiso   1.00
C470   C     0.25075   0.09128   0.00951   0.00000  Uiso   1.00
C471   C     0.27879   0.07297   0.09514   0.00000  Uiso   1.00
C472   C     0.31398   0.06739   0.00060   0.00000  Uiso   1.00
C473   C     0.37577   0.05151   0.90512   0.00000  Uiso   1.00
C474   C     0.22292   0.12296   0.76793   0.00000  Uiso   1.00
C475   C     0.18617   0.10258   0.77376   0.00000  Uiso   1.00
C476   C     0.16125   0.09618   0.62704   0.00000  Uiso   1.00
C477   C     0.12918   0.07702   0.66039   0.00000  Uiso   1.00
C478   C     0.21632   0.14718   0.91377   0.00000  Uiso   1.00
C479   C     0.21676   0.17829   0.88476   0.00000  Uiso   1.00
C480   C     0.21009   0.19667   0.03596   0.00000  Uiso   1.00
C481   C     0.25761   0.10358   0.83563   0.00000  Uiso   1.00
C482   C     0.29276   0.09803   0.74095   0.00000  Uiso   1.00
C483   C     0.32086   0.07972   0.82641   0.00000  Uiso   1.00
H484   H     0.20494   0.09072   0.22343   0.00000  Uiso   1.00
H485   H     0.14197   0.06160   0.11580   0.00000  Uiso   1.00
H486   H     0.19748   0.14369   0.37348   0.00000  Uiso   1.00
H487   H     0.27347   0.06345   0.22969   0.00000  Uiso   1.00
H488   H     0.07516   0.03475   0.91981   0.00000  Uiso   1.00
H489   H     0.19223   0.20784   0.46315   0.00000  Uiso   1.00
H490   H     0.35247   0.03864   0.15996   0.00000  Uiso   1.00
H491   H     0.22826   0.13254   0.63256   0.00000  Uiso   1.00
H492   H     0.16656   0.10571   0.49249   0.00000  Uiso   1.00
H493   H     0.22208   0.18780   0.75018   0.00000  Uiso   1.00
H494   H     0.29806   0.10756   0.60640   0.00000  Uiso   1.00
H495   H     0.09512   0.07055   0.41392   0.00000  Uiso   1.00
H496   H     0.21220   0.24364   0.95726   0.00000  Uiso   1.00
H497   H     0.37243   0.07444   0.65407   0.00000  Uiso   1.00
O498   O     0.04413   0.03426   0.58540   0.00000  Uiso   1.00
O499   O     0.19773   0.26134   0.29826   0.00000  Uiso   1.00
O500   O     0.40795   0.03936   0.90048   0.00000  Uiso   1.00
N501   N     0.08833   0.04685   0.81996   0.00000  Uiso   1.00
N502   N     0.19778   0.20868   0.32795   0.00000  Uiso   1.00
N503   N     0.34759   0.05050   0.04451   0.00000  Uiso   1.00
N504   N     0.09907   0.06612   0.54774   0.00000  Uiso   1.00
N505   N     0.20852   0.22795   0.05573   0.00000  Uiso   1.00
N506   N     0.35833   0.06976   0.77229   0.00000  Uiso   1.00
C507   C     0.21029   0.60030   0.58805   0.00000  Uiso   1.00
C508   C     0.17930   0.59027   0.44764   0.00000  Uiso   1.00
C509   C     0.14727   0.57112   0.48121   0.00000  Uiso   1.00
C510   C     0.12230   0.56469   0.33458   0.00000  Uiso   1.00
C511   C     0.07314   0.54726   0.14302   0.00000  Uiso   1.00
C512   C     0.20946   0.63488   0.58764   0.00000  Uiso   1.00
C513   C     0.20279   0.65322   0.73894   0.00000  Uiso   1.00
C514   C     0.20321   0.68434   0.71015   0.00000  Uiso   1.00
C515   C     0.20090   0.73616   0.73598   0.00000  Uiso   1.00
C516   C     0.25075   0.59128   0.50951   0.00000  Uiso   1.00
C517   C     0.27879   0.57297   0.59514   0.00000  Uiso   1.00
C518   C     0.31398   0.56739   0.50060   0.00000  Uiso   1.00
C519   C     0.37577   0.55151   0.40512   0.00000  Uiso   1.00
C520   C     0.22292   0.62296   0.26793   0.00000  Uiso   1.00
C521   C     0.18617   0.60258   0.27376   0.00000  Uiso   1.00
C522   C     0.16125   0.59618   0.12704   0.00000  Uiso   1.00
C523   C     0.12918   0.57702   0.16039   0.00000  Uiso   1.00
C524   C     0.21632   0.64718   0.41377   0.00000  Uiso   1.00
C525   C     0.21676   0.67829   0.38476   0.00000  Uiso   1.00
C526   C     0.21009   0.69667   0.53596   0.00000  Uiso   1.00
C527   C     0.25761   0.60358   0.33563   0.00000  Uiso   1.00
C528   C     0.29276   0.59803   0.24095   0.00000  Uiso   1.00
C529   C     0.32086   0.57972   0.32641   0.00000  Uiso   1.00
H530   H     0.20494   0.59072   0.72343   0.00000  Uiso   1.00
H531   H     0.14197   0.56160   0.61580   0.00000  Uiso   1.00
H532   H     0.19748   0.64369   0.87348   0.00000  Uiso   1.00
H533   H     0.27347   0.56345   0.72969   0.00000  Uiso   1.00
H534   H     0.07516   0.53475   0.41981   0.00000  Uiso   1.00
H535   H     0.19223   0.70784   0.96315   0.00000  Uiso   1.00
H536   H     0.35247   0.53864   0.65996   0.00000  Uiso   1.00
H537   H     0.22826   0.63254   0.13256   0.00000  Uiso   1.00
H538   H     0.16656   0.60571   0.99249   0.00000  Uiso   1.00
H539   H     0.22208   0.68780   0.25018   0.00000  Uiso   1.00
H540   H     0.29806   0.60756   0.10640   0.00000  Uiso   1.00
H541   H     0.09512   0.57055   0.91392   0.00000  Uiso   1.00
H542   H     0.21220   0.74364   0.45726   0.00000  Uiso   1.00
H543   H     0.37243   0.57444   0.15407   0.00000  Uiso   1.00
O544   O     0.04413   0.53426   0.08540   0.00000  Uiso   1.00
O545   O     0.19773   0.76134   0.79826   0.00000  Uiso   1.00
O546   O     0.40795   0.53936   0.40048   0.00000  Uiso   1.00
N547   N     0.08833   0.54685   0.31996   0.00000  Uiso   1.00
N548   N     0.19778   0.70868   0.82795   0.00000  Uiso   1.00
N549   N     0.34759   0.55050   0.54451   0.00000  Uiso   1.00
N550   N     0.09907   0.56612   0.04774   0.00000  Uiso   1.00
N551   N     0.20852   0.72795   0.55573   0.00000  Uiso   1.00
N552   N     0.35833   0.56976   0.27229   0.00000  Uiso   1.00
C553   C     0.78971   0.39970   0.58805   0.00000  Uiso   1.00
C554   C     0.82070   0.40973   0.44764   0.00000  Uiso   1.00
C555   C     0.85273   0.42888   0.48121   0.00000  Uiso   1.00
C556   C     0.87770   0.43531   0.33458   0.00000  Uiso   1.00
C557   C     0.92686   0.45274   0.14302   0.00000  Uiso   1.00
C558   C     0.79054   0.36512   0.58764   0.00000  Uiso   1.00
C559   C     0.79721   0.34678   0.73894   0.00000  Uiso   1.00
C560   C     0.79679   0.31566   0.71015   0.00000  Uiso   1.00
C561   C     0.79910   0.26384   0.73598   0.00000  Uiso   1.00
C562   C     0.74925   0.40872   0.50951   0.00000  Uiso   1.00
C563   C     0.72121   0.42703   0.59514   0.00000  Uiso   1.00
C564   C     0.68602   0.43261   0.50060   0.00000  Uiso   1.00
C565   C     0.62423   0.44849   0.40512   0.00000  Uiso   1.00
C566   C     0.77708   0.37704   0.26793   0.00000  Uiso   1.00
C567   C     0.81383   0.39742   0.27376   0.00000  Uiso   1.00
C568   C     0.83875   0.40382   0.12704   0.00000  Uiso   1.00
C569   C     0.87082   0.42298   0.16039   0.00000  Uiso   1.00
C570   C     0.78368   0.35282   0.41377   0.00000  Uiso   1.00
C571   C     0.78324   0.32171   0.38476   0.00000  Uiso   1.00
C572   C     0.78991   0.30333   0.53596   0.00000  Uiso   1.00
C573   C     0.74239   0.39642   0.33563   0.00000  Uiso   1.00
C574   C     0.70724   0.40197   0.24095   0.00000  Uiso   1.00
C575   C     0.67914   0.42028   0.32641   0.00000  Uiso   1.00
H576   H     0.79506   0.40928   0.72343   0.00000  Uiso   1.00
H577   H     0.85803   0.43840   0.61580   0.00000  Uiso   1.00
H578   H     0.80252   0.35631   0.87348   0.00000  Uiso   1.00
H579   H     0.72653   0.43655   0.72969   0.00000  Uiso   1.00
H580   H     0.92484   0.46525   0.41981   0.00000  Uiso   1.00
H581   H     0.80777   0.29216   0.96315   0.00000  Uiso   1.00
H582   H     0.64753   0.46136   0.65996   0.00000  Uiso   1.00
H583   H     0.77174   0.36746   0.13256   0.00000  Uiso   1.00
H584   H     0.83344   0.39429   0.99249   0.00000  Uiso   1.00
H585   H     0.77792   0.31220   0.25018   0.00000  Uiso   1.00
H586   H     0.70194   0.39244   0.10640   0.00000  Uiso   1.00
H587   H     0.90488   0.42945   0.91392   0.00000  Uiso   1.00
H588   H     0.78780   0.25636   0.45726   0.00000  Uiso   1.00
H589   H     0.62757   0.42556   0.15407   0.00000  Uiso   1.00
O590   O     0.95587   0.46574   0.08540   0.00000  Uiso   1.00
O591   O     0.80227   0.23866   0.79826   0.00000  Uiso   1.00
O592   O     0.59205   0.46064   0.40048   0.00000  Uiso   1.00
N593   N     0.91167   0.45315   0.31996   0.00000  Uiso   1.00
N594   N     0.80222   0.29132   0.82795   0.00000  Uiso   1.00
N595   N     0.65241   0.44950   0.54451   0.00000  Uiso   1.00
N596   N     0.90093   0.43388   0.04774   0.00000  Uiso   1.00
N597   N     0.79148   0.27205   0.55573   0.00000  Uiso   1.00
N598   N     0.64167   0.43024   0.27229   0.00000  Uiso   1.00
C599   C     0.78971   0.89970   0.08805   0.00000  Uiso   1.00
C600   C     0.82070   0.90973   0.94764   0.00000  Uiso   1.00
C601   C     0.85273   0.92888   0.98121   0.00000  Uiso   1.00
C602   C     0.87770   0.93531   0.83458   0.00000  Uiso   1.00
C603   C     0.92686   0.95274   0.64302   0.00000  Uiso   1.00
C604   C     0.79054   0.86512   0.08764   0.00000  Uiso   1.00
C605   C     0.79721   0.84678   0.23894   0.00000  Uiso   1.00
C606   C     0.79679   0.81566   0.21015   0.00000  Uiso   1.00
C607   C     0.79910   0.76384   0.23598   0.00000  Uiso   1.00
C608   C     0.74925   0.90872   0.00951   0.00000  Uiso   1.00
C609   C     0.72121   0.92703   0.09514   0.00000  Uiso   1.00
C610   C     0.68602   0.93261   0.00060   0.00000  Uiso   1.00
C611   C     0.62423   0.94849   0.90512   0.00000  Uiso   1.00
C612   C     0.77708   0.87704   0.76793   0.00000  Uiso   1.00
C613   C     0.81383   0.89742   0.77376   0.00000  Uiso   1.00
C614   C     0.83875   0.90382   0.62704   0.00000  Uiso   1.00
C615   C     0.87082   0.92298   0.66039   0.00000  Uiso   1.00
C616   C     0.78368   0.85282   0.91377   0.00000  Uiso   1.00
C617   C     0.78324   0.82171   0.88476   0.00000  Uiso   1.00
C618   C     0.78991   0.80333   0.03596   0.00000  Uiso   1.00
C619   C     0.74239   0.89642   0.83563   0.00000  Uiso   1.00
C620   C     0.70724   0.90197   0.74095   0.00000  Uiso   1.00
C621   C     0.67914   0.92028   0.82641   0.00000  Uiso   1.00
H622   H     0.79506   0.90928   0.22343   0.00000  Uiso   1.00
H623   H     0.85803   0.93840   0.11580   0.00000  Uiso   1.00
H624   H     0.80252   0.85631   0.37348   0.00000  Uiso   1.00
H625   H     0.72653   0.93655   0.22969   0.00000  Uiso   1.00
H626   H     0.92484   0.96525   0.91981   0.00000  Uiso   1.00
H627   H     0.80777   0.79216   0.46315   0.00000  Uiso   1.00
H628   H     0.64753   0.96136   0.15996   0.00000  Uiso   1.00
H629   H     0.77174   0.86746   0.63256   0.00000  Uiso   1.00
H630   H     0.83344   0.89429   0.49249   0.00000  Uiso   1.00
H631   H     0.77792   0.81220   0.75018   0.00000  Uiso   1.00
H632   H     0.70194   0.89244   0.60640   0.00000  Uiso   1.00
H633   H     0.90488   0.92945   0.41392   0.00000  Uiso   1.00
H634   H     0.78780   0.75636   0.95726   0.00000  Uiso   1.00
H635   H     0.62757   0.92556   0.65407   0.00000  Uiso   1.00
O636   O     0.95587   0.96574   0.58540   0.00000  Uiso   1.00
O637   O     0.80227   0.73866   0.29826   0.00000  Uiso   1.00
O638   O     0.59205   0.96064   0.90048   0.00000  Uiso   1.00
N639   N     0.91167   0.95315   0.81996   0.00000  Uiso   1.00
N640   N     0.80222   0.79132   0.32795   0.00000  Uiso   1.00
N641   N     0.65241   0.94950   0.04451   0.00000  Uiso   1.00
N642   N     0.90093   0.93388   0.54774   0.00000  Uiso   1.00
N643   N     0.79148   0.77205   0.05573   0.00000  Uiso   1.00
N644   N     0.64167   0.93024   0.77229   0.00000  Uiso   1.00
C645   C     0.28971   0.39970   0.08805   0.00000  Uiso   1.00
C646   C     0.32070   0.40973   0.94764   0.00000  Uiso   1.00
C647   C     0.35273   0.42888   0.98121   0.00000  Uiso   1.00
C648   C     0.37770   0.43531   0.83458   0.00000  Uiso   1.00
C649   C     0.42686   0.45274   0.64302   0.00000  Uiso   1.00
C650   C     0.29054   0.36512   0.08764   0.00000  Uiso   1.00
C651   C     0.29721   0.34678   0.23894   0.00000  Uiso   1.00
C652   C     0.29679   0.31566   0.21015   0.00000  Uiso   1.00
C653   C     0.29910   0.26384   0.23598   0.00000  Uiso   1.00
C654   C     0.24925   0.40872   0.00951   0.00000  Uiso   1.00
C655   C     0.22121   0.42703   0.09514   0.00000  Uiso   1.00
C656   C     0.18602   0.43261   0.00060   0.00000  Uiso   1.00
C657   C     0.12423   0.44849   0.90512   0.00000  Uiso   1.00
C658   C     0.27708   0.37704   0.76793   0.00000  Uiso   1.00
C659   C     0.31383   0.39742   0.77376   0.00000  Uiso   1.00
C660   C     0.33875   0.40382   0.62704   0.00000  Uiso   1.00
C661   C     0.37082   0.42298   0.66039   0.00000  Uiso   1.00
C662   C     0.28368   0.35282   0.91377   0.00000  Uiso   1.00
C663   C     0.28324   0.32171   0.88476   0.00000  Uiso   1.00
C664   C     0.28991   0.30333   0.03596   0.00000  Uiso   1.00
C665   C     0.24239   0.39642   0.83563   0.00000  Uiso   1.00
C666   C     0.20724   0.40197   0.74095   0.00000  Uiso   1.00
C667   C     0.17914   0.42028   0.82641   0.00000  Uiso   1.00
H668   H     0.29506   0.40928   0.22343   0.00000  Uiso   1.00
H669   H     0.35803   0.43840   0.11580   0.00000  Uiso   1.00
H670   H     0.30252   0.35631   0.37348   0.00000  Uiso   1.00
H671   H     0.22653   0.43655   0.22969   0.00000  Uiso   1.00
H672   H     0.42484   0.46525   0.91981   0.00000  Uiso   1.00
H673   H     0.30777   0.29216   0.46315   0.00000  Uiso   1.00
H674   H     0.14753   0.46136   0.15996   0.00000  Uiso   1.00
H675   H     0.27174   0.36746   0.63256   0.00000  Uiso   1.00
H676   H     0.33344   0.39429   0.49249   0.00000  Uiso   1.00
H677   H     0.27792   0.31220   0.75018   0.00000  Uiso   1.00
H678   H     0.20194   0.39244   0.60640   0.00000  Uiso   1.00
H679   H     0.40488   0.42945   0.41392   0.00000  Uiso   1.00
H680   H     0.28780   0.25636   0.95726   0.00000  Uiso   1.00
H681   H     0.12757   0.42556   0.65407   0.00000  Uiso   1.00
O682   O     0.45587   0.46574   0.58540   0.00000  Uiso   1.00
O683   O     0.30227   0.23866   0.29826   0.00000  Uiso   1.00
O684   O     0.09205   0.46064   0.90048   0.00000  Uiso   1.00
N685   N     0.41167   0.45315   0.81996   0.00000  Uiso   1.00
N686   N     0.30222   0.29132   0.32795   0.00000  Uiso   1.00
N687   N     0.15241   0.44950   0.04451   0.00000  Uiso   1.00
N688   N     0.40093   0.43388   0.54774   0.00000  Uiso   1.00
N689   N     0.29148   0.27205   0.05573   0.00000  Uiso   1.00
N690   N     0.14167   0.43024   0.77229   0.00000  Uiso   1.00
C691   C     0.28971   0.89970   0.58805   0.00000  Uiso   1.00
C692   C     0.32070   0.90973   0.44764   0.00000  Uiso   1.00
C693   C     0.35273   0.92888   0.48121   0.00000  Uiso   1.00
C694   C     0.37770   0.93531   0.33458   0.00000  Uiso   1.00
C695   C     0.42686   0.95274   0.14302   0.00000  Uiso   1.00
C696   C     0.29054   0.86512   0.58764   0.00000  Uiso   1.00
C697   C     0.29721   0.84678   0.73894   0.00000  Uiso   1.00
C698   C     0.29679   0.81566   0.71015   0.00000  Uiso   1.00
C699   C     0.29910   0.76384   0.73598   0.00000  Uiso   1.00
C700   C     0.24925   0.90872   0.50951   0.00000  Uiso   1.00
C701   C     0.22121   0.92703   0.59514   0.00000  Uiso   1.00
C702   C     0.18602   0.93261   0.50060   0.00000  Uiso   1.00
C703   C     0.12423   0.94849   0.40512   0.00000  Uiso   1.00
C704   C     0.27708   0.87704   0.26793   0.00000  Uiso   1.00
C705   C     0.31383   0.89742   0.27376   0.00000  Uiso   1.00
C706   C     0.33875   0.90382   0.12704   0.00000  Uiso   1.00
C707   C     0.37082   0.92298   0.16039   0.00000  Uiso   1.00
C708   C     0.28368   0.85282   0.41377   0.00000  Uiso   1.00
C709   C     0.28324   0.82171   0.38476   0.00000  Uiso   1.00
C710   C     0.28991   0.80333   0.53596   0.00000  Uiso   1.00
C711   C     0.24239   0.89642   0.33563   0.00000  Uiso   1.00
C712   C     0.20724   0.90197   0.24095   0.00000  Uiso   1.00
C713   C     0.17914   0.92028   0.32641   0.00000  Uiso   1.00
H714   H     0.29506   0.90928   0.72343   0.00000  Uiso   1.00
H715   H     0.35803   0.93840   0.61580   0.00000  Uiso   1.00
H716   H     0.30252   0.85631   0.87348   0.00000  Uiso   1.00
H717   H     0.22653   0.93655   0.72969   0.00000  Uiso   1.00
H718   H     0.42484   0.96525   0.41981   0.00000  Uiso   1.00
H719   H     0.30777   0.79216   0.96315   0.00000  Uiso   1.00
H720   H     0.14753   0.96136   0.65996   0.00000  Uiso   1.00
H721   H     0.27174   0.86746   0.13256   0.00000  Uiso   1.00
H722   H     0.33344   0.89429   0.99249   0.00000  Uiso   1.00
H723   H     0.27792   0.81220   0.25018   0.00000  Uiso   1.00
H724   H     0.20194   0.89244   0.10640   0.00000  Uiso   1.00
H725   H     0.40488   0.92945   0.91392   0.00000  Uiso   1.00
H726   H     0.28780   0.75636   0.45726   0.00000  Uiso   1.00
H727   H     0.12757   0.92556   0.15407   0.00000  Uiso   1.00
O728   O     0.45587   0.96574   0.08540   0.00000  Uiso   1.00
O729   O     0.30227   0.73866   0.79826   0.00000  Uiso   1.00
O730   O     0.09205   0.96064   0.40048   0.00000  Uiso   1.00
N731   N     0.41167   0.95315   0.31996   0.00000  Uiso   1.00
N732   N     0.30222   0.79132   0.82795   0.00000  Uiso   1.00
N733   N     0.15241   0.94950   0.54451   0.00000  Uiso   1.00
N734   N     0.40093   0.93388   0.04774   0.00000  Uiso   1.00
N735   N     0.29148   0.77205   0.55573   0.00000  Uiso   1.00
N736   N     0.14167   0.93024   0.27229   0.00000  Uiso   1.00
