data_job_02367
_audit_creation_date              2018-12-19
_audit_creation_method            'Materials Studio'
_symmetry_space_group_name_H-M    'P1'
_symmetry_Int_Tables_number       1
_symmetry_cell_setting            triclinic
loop_
_symmetry_equiv_pos_as_xyz
  x,y,z
_cell_length_a                    24.9772
_cell_length_b                    24.9772
_cell_length_c                    14.2417
_cell_angle_alpha                 90.0000
_cell_angle_beta                  90.0000
_cell_angle_gamma                 90.0000
loop_
_atom_site_label
_atom_site_type_symbol
_atom_site_fract_x
_atom_site_fract_y
_atom_site_fract_z
_atom_site_U_iso_or_equiv
_atom_site_adp_type
_atom_site_occupancy
C1     C     0.34538   0.33580   0.93312   0.00000  Uiso   1.00
C2     C     0.36298   0.34281   0.83133   0.00000  Uiso   1.00
C3     C     0.33749   0.37424   0.76456   0.00000  Uiso   1.00
C4     C     0.35985   0.37535   0.67534   0.00000  Uiso   1.00
C5     C     0.38013   0.39067   0.52055   0.00000  Uiso   1.00
C6     C     0.33814   0.27575   0.94765   0.00000  Uiso   1.00
C7     C     0.29175   0.25080   0.97871   0.00000  Uiso   1.00
C8     C     0.29321   0.19545   0.98742   0.00000  Uiso   1.00
C9     C     0.27494   0.10666   0.01330   0.00000  Uiso   1.00
C10    C     0.39331   0.35189   0.99314   0.00000  Uiso   1.00
C11    C     0.39332   0.39094   0.06246   0.00000  Uiso   1.00
C12    C     0.44122   0.39969   0.10948   0.00000  Uiso   1.00
C13    C     0.50861   0.42911   0.20598   0.00000  Uiso   1.00
C14    C     0.43044   0.28188   0.89338   0.00000  Uiso   1.00
C15    C     0.40918   0.31352   0.80975   0.00000  Uiso   1.00
C16    C     0.43159   0.31458   0.72060   0.00000  Uiso   1.00
C17    C     0.40613   0.34601   0.65371   0.00000  Uiso   1.00
C18    C     0.38433   0.24646   0.92607   0.00000  Uiso   1.00
C19    C     0.38586   0.19114   0.93474   0.00000  Uiso   1.00
C20    C     0.33949   0.16611   0.96579   0.00000  Uiso   1.00
C21    C     0.43951   0.32260   0.97156   0.00000  Uiso   1.00
C22    C     0.48742   0.33128   0.01849   0.00000  Uiso   1.00
C23    C     0.48750   0.37035   0.08786   0.00000  Uiso   1.00
H24    H     0.30941   0.35860   0.94992   0.00000  Uiso   1.00
H25    H     0.30173   0.39690   0.78129   0.00000  Uiso   1.00
H26    H     0.25601   0.27347   0.99541   0.00000  Uiso   1.00
H27    H     0.35756   0.41360   0.07914   0.00000  Uiso   1.00
H28    H     0.31358   0.42643   0.58480   0.00000  Uiso   1.00
H29    H     0.21718   0.16618   0.03632   0.00000  Uiso   1.00
H30    H     0.43131   0.46166   0.21288   0.00000  Uiso   1.00
H31    H     0.46641   0.25908   0.87658   0.00000  Uiso   1.00
H32    H     0.46734   0.29191   0.70392   0.00000  Uiso   1.00
H33    H     0.42162   0.16849   0.91804   0.00000  Uiso   1.00
H34    H     0.52317   0.30861   0.00177   0.00000  Uiso   1.00
H35    H     0.44799   0.34122   0.52200   0.00000  Uiso   1.00
H36    H     0.35160   0.08097   0.97353   0.00000  Uiso   1.00
H37    H     0.56573   0.37645   0.15008   0.00000  Uiso   1.00
O38    O     0.37856   0.40720   0.44113   0.00000  Uiso   1.00
O39    O     0.25209   0.06577   0.03353   0.00000  Uiso   1.00
O40    O     0.53302   0.45343   0.26516   0.00000  Uiso   1.00
N41    N     0.34509   0.40187   0.59372   0.00000  Uiso   1.00
N42    N     0.25496   0.15856   0.01585   0.00000  Uiso   1.00
N43    N     0.45515   0.43479   0.18094   0.00000  Uiso   1.00
N44    N     0.41742   0.35602   0.55993   0.00000  Uiso   1.00
N45    N     0.32729   0.11271   0.98206   0.00000  Uiso   1.00
N46    N     0.52748   0.38894   0.14715   0.00000  Uiso   1.00
C47    C     0.84538   0.83580   0.43312   0.00000  Uiso   1.00
C48    C     0.86298   0.84281   0.33133   0.00000  Uiso   1.00
C49    C     0.83749   0.87424   0.26456   0.00000  Uiso   1.00
C50    C     0.85985   0.87535   0.17534   0.00000  Uiso   1.00
C51    C     0.88013   0.89067   0.02055   0.00000  Uiso   1.00
C52    C     0.83814   0.77575   0.44765   0.00000  Uiso   1.00
C53    C     0.79175   0.75080   0.47871   0.00000  Uiso   1.00
C54    C     0.79321   0.69545   0.48742   0.00000  Uiso   1.00
C55    C     0.77494   0.60666   0.51330   0.00000  Uiso   1.00
C56    C     0.89331   0.85189   0.49314   0.00000  Uiso   1.00
C57    C     0.89332   0.89094   0.56246   0.00000  Uiso   1.00
C58    C     0.94122   0.89969   0.60948   0.00000  Uiso   1.00
C59    C     0.00861   0.92911   0.70598   0.00000  Uiso   1.00
C60    C     0.93044   0.78188   0.39338   0.00000  Uiso   1.00
C61    C     0.90918   0.81352   0.30975   0.00000  Uiso   1.00
C62    C     0.93159   0.81458   0.22060   0.00000  Uiso   1.00
C63    C     0.90613   0.84601   0.15371   0.00000  Uiso   1.00
C64    C     0.88433   0.74646   0.42607   0.00000  Uiso   1.00
C65    C     0.88586   0.69114   0.43474   0.00000  Uiso   1.00
C66    C     0.83949   0.66611   0.46579   0.00000  Uiso   1.00
C67    C     0.93951   0.82260   0.47156   0.00000  Uiso   1.00
C68    C     0.98742   0.83128   0.51849   0.00000  Uiso   1.00
C69    C     0.98750   0.87035   0.58786   0.00000  Uiso   1.00
H70    H     0.80941   0.85860   0.44992   0.00000  Uiso   1.00
H71    H     0.80173   0.89690   0.28129   0.00000  Uiso   1.00
H72    H     0.75601   0.77347   0.49541   0.00000  Uiso   1.00
H73    H     0.85756   0.91360   0.57914   0.00000  Uiso   1.00
H74    H     0.81358   0.92643   0.08480   0.00000  Uiso   1.00
H75    H     0.71718   0.66618   0.53632   0.00000  Uiso   1.00
H76    H     0.93131   0.96166   0.71288   0.00000  Uiso   1.00
H77    H     0.96641   0.75908   0.37658   0.00000  Uiso   1.00
H78    H     0.96734   0.79191   0.20392   0.00000  Uiso   1.00
H79    H     0.92162   0.66849   0.41804   0.00000  Uiso   1.00
H80    H     0.02317   0.80861   0.50177   0.00000  Uiso   1.00
H81    H     0.94799   0.84122   0.02200   0.00000  Uiso   1.00
H82    H     0.85160   0.58097   0.47353   0.00000  Uiso   1.00
H83    H     0.06573   0.87645   0.65008   0.00000  Uiso   1.00
O84    O     0.87856   0.90720   0.94113   0.00000  Uiso   1.00
O85    O     0.75209   0.56577   0.53353   0.00000  Uiso   1.00
O86    O     0.03302   0.95343   0.76516   0.00000  Uiso   1.00
N87    N     0.84509   0.90187   0.09372   0.00000  Uiso   1.00
N88    N     0.75496   0.65856   0.51585   0.00000  Uiso   1.00
N89    N     0.95515   0.93479   0.68094   0.00000  Uiso   1.00
N90    N     0.91742   0.85602   0.05993   0.00000  Uiso   1.00
N91    N     0.82729   0.61271   0.48206   0.00000  Uiso   1.00
N92    N     0.02748   0.88894   0.64715   0.00000  Uiso   1.00
C93    C     0.65462   0.66420   0.93312   0.00000  Uiso   1.00
C94    C     0.63702   0.65719   0.83133   0.00000  Uiso   1.00
C95    C     0.66251   0.62576   0.76456   0.00000  Uiso   1.00
C96    C     0.64015   0.62465   0.67534   0.00000  Uiso   1.00
C97    C     0.61987   0.60933   0.52055   0.00000  Uiso   1.00
C98    C     0.66186   0.72425   0.94765   0.00000  Uiso   1.00
C99    C     0.70825   0.74920   0.97871   0.00000  Uiso   1.00
C100   C     0.70679   0.80455   0.98742   0.00000  Uiso   1.00
C101   C     0.72506   0.89334   0.01330   0.00000  Uiso   1.00
C102   C     0.60669   0.64811   0.99314   0.00000  Uiso   1.00
C103   C     0.60668   0.60906   0.06246   0.00000  Uiso   1.00
C104   C     0.55878   0.60031   0.10948   0.00000  Uiso   1.00
C105   C     0.49139   0.57089   0.20598   0.00000  Uiso   1.00
C106   C     0.56956   0.71812   0.89338   0.00000  Uiso   1.00
C107   C     0.59082   0.68648   0.80975   0.00000  Uiso   1.00
C108   C     0.56841   0.68542   0.72060   0.00000  Uiso   1.00
C109   C     0.59387   0.65399   0.65371   0.00000  Uiso   1.00
C110   C     0.61567   0.75354   0.92607   0.00000  Uiso   1.00
C111   C     0.61414   0.80886   0.93474   0.00000  Uiso   1.00
C112   C     0.66051   0.83389   0.96579   0.00000  Uiso   1.00
C113   C     0.56049   0.67740   0.97156   0.00000  Uiso   1.00
C114   C     0.51258   0.66872   0.01849   0.00000  Uiso   1.00
C115   C     0.51250   0.62965   0.08786   0.00000  Uiso   1.00
H116   H     0.69059   0.64140   0.94992   0.00000  Uiso   1.00
H117   H     0.69827   0.60310   0.78129   0.00000  Uiso   1.00
H118   H     0.74399   0.72653   0.99541   0.00000  Uiso   1.00
H119   H     0.64244   0.58640   0.07914   0.00000  Uiso   1.00
H120   H     0.68642   0.57357   0.58480   0.00000  Uiso   1.00
H121   H     0.78282   0.83382   0.03632   0.00000  Uiso   1.00
H122   H     0.56869   0.53834   0.21288   0.00000  Uiso   1.00
H123   H     0.53359   0.74092   0.87658   0.00000  Uiso   1.00
H124   H     0.53266   0.70809   0.70392   0.00000  Uiso   1.00
H125   H     0.57838   0.83151   0.91804   0.00000  Uiso   1.00
H126   H     0.47683   0.69139   0.00177   0.00000  Uiso   1.00
H127   H     0.55201   0.65878   0.52200   0.00000  Uiso   1.00
H128   H     0.64840   0.91903   0.97353   0.00000  Uiso   1.00
H129   H     0.43427   0.62355   0.15008   0.00000  Uiso   1.00
O130   O     0.62144   0.59280   0.44113   0.00000  Uiso   1.00
O131   O     0.74791   0.93423   0.03353   0.00000  Uiso   1.00
O132   O     0.46698   0.54657   0.26516   0.00000  Uiso   1.00
N133   N     0.65491   0.59813   0.59372   0.00000  Uiso   1.00
N134   N     0.74504   0.84144   0.01585   0.00000  Uiso   1.00
N135   N     0.54485   0.56521   0.18094   0.00000  Uiso   1.00
N136   N     0.58258   0.64398   0.55993   0.00000  Uiso   1.00
N137   N     0.67271   0.88729   0.98206   0.00000  Uiso   1.00
N138   N     0.47252   0.61106   0.14715   0.00000  Uiso   1.00
C139   C     0.15462   0.16420   0.43312   0.00000  Uiso   1.00
C140   C     0.13702   0.15719   0.33133   0.00000  Uiso   1.00
C141   C     0.16251   0.12576   0.26456   0.00000  Uiso   1.00
C142   C     0.14015   0.12465   0.17534   0.00000  Uiso   1.00
C143   C     0.11987   0.10933   0.02055   0.00000  Uiso   1.00
C144   C     0.16186   0.22425   0.44765   0.00000  Uiso   1.00
C145   C     0.20825   0.24920   0.47871   0.00000  Uiso   1.00
C146   C     0.20679   0.30455   0.48742   0.00000  Uiso   1.00
C147   C     0.22506   0.39334   0.51330   0.00000  Uiso   1.00
C148   C     0.10669   0.14811   0.49314   0.00000  Uiso   1.00
C149   C     0.10668   0.10906   0.56246   0.00000  Uiso   1.00
C150   C     0.05878   0.10031   0.60948   0.00000  Uiso   1.00
C151   C     0.99139   0.07089   0.70598   0.00000  Uiso   1.00
C152   C     0.06956   0.21812   0.39338   0.00000  Uiso   1.00
C153   C     0.09082   0.18648   0.30975   0.00000  Uiso   1.00
C154   C     0.06841   0.18542   0.22060   0.00000  Uiso   1.00
C155   C     0.09387   0.15399   0.15371   0.00000  Uiso   1.00
C156   C     0.11567   0.25354   0.42607   0.00000  Uiso   1.00
C157   C     0.11414   0.30886   0.43474   0.00000  Uiso   1.00
C158   C     0.16051   0.33389   0.46579   0.00000  Uiso   1.00
C159   C     0.06049   0.17740   0.47156   0.00000  Uiso   1.00
C160   C     0.01258   0.16872   0.51849   0.00000  Uiso   1.00
C161   C     0.01250   0.12965   0.58786   0.00000  Uiso   1.00
H162   H     0.19059   0.14140   0.44992   0.00000  Uiso   1.00
H163   H     0.19827   0.10310   0.28129   0.00000  Uiso   1.00
H164   H     0.24399   0.22653   0.49541   0.00000  Uiso   1.00
H165   H     0.14244   0.08640   0.57914   0.00000  Uiso   1.00
H166   H     0.18642   0.07357   0.08480   0.00000  Uiso   1.00
H167   H     0.28282   0.33382   0.53632   0.00000  Uiso   1.00
H168   H     0.06869   0.03834   0.71288   0.00000  Uiso   1.00
H169   H     0.03359   0.24092   0.37658   0.00000  Uiso   1.00
H170   H     0.03266   0.20809   0.20392   0.00000  Uiso   1.00
H171   H     0.07838   0.33151   0.41804   0.00000  Uiso   1.00
H172   H     0.97683   0.19139   0.50177   0.00000  Uiso   1.00
H173   H     0.05201   0.15878   0.02200   0.00000  Uiso   1.00
H174   H     0.14840   0.41903   0.47353   0.00000  Uiso   1.00
H175   H     0.93427   0.12355   0.65008   0.00000  Uiso   1.00
O176   O     0.12144   0.09280   0.94113   0.00000  Uiso   1.00
O177   O     0.24791   0.43423   0.53353   0.00000  Uiso   1.00
O178   O     0.96698   0.04657   0.76516   0.00000  Uiso   1.00
N179   N     0.15491   0.09813   0.09372   0.00000  Uiso   1.00
N180   N     0.24504   0.34144   0.51585   0.00000  Uiso   1.00
N181   N     0.04485   0.06521   0.68094   0.00000  Uiso   1.00
N182   N     0.08258   0.14398   0.05993   0.00000  Uiso   1.00
N183   N     0.17271   0.38729   0.48206   0.00000  Uiso   1.00
N184   N     0.97252   0.11106   0.64715   0.00000  Uiso   1.00
C185   C     0.33580   0.65462   0.06688   0.00000  Uiso   1.00
C186   C     0.34281   0.63702   0.16867   0.00000  Uiso   1.00
C187   C     0.37424   0.66251   0.23544   0.00000  Uiso   1.00
C188   C     0.37535   0.64015   0.32466   0.00000  Uiso   1.00
C189   C     0.39067   0.61987   0.47945   0.00000  Uiso   1.00
C190   C     0.27575   0.66186   0.05235   0.00000  Uiso   1.00
C191   C     0.25080   0.70825   0.02129   0.00000  Uiso   1.00
C192   C     0.19545   0.70679   0.01258   0.00000  Uiso   1.00
C193   C     0.10666   0.72506   0.98670   0.00000  Uiso   1.00
C194   C     0.35189   0.60669   0.00686   0.00000  Uiso   1.00
C195   C     0.39094   0.60668   0.93754   0.00000  Uiso   1.00
C196   C     0.39969   0.55878   0.89052   0.00000  Uiso   1.00
C197   C     0.42911   0.49139   0.79402   0.00000  Uiso   1.00
C198   C     0.28188   0.56956   0.10662   0.00000  Uiso   1.00
C199   C     0.31352   0.59082   0.19025   0.00000  Uiso   1.00
C200   C     0.31458   0.56841   0.27940   0.00000  Uiso   1.00
C201   C     0.34601   0.59387   0.34629   0.00000  Uiso   1.00
C202   C     0.24646   0.61567   0.07393   0.00000  Uiso   1.00
C203   C     0.19114   0.61414   0.06526   0.00000  Uiso   1.00
C204   C     0.16611   0.66051   0.03421   0.00000  Uiso   1.00
C205   C     0.32260   0.56049   0.02844   0.00000  Uiso   1.00
C206   C     0.33128   0.51258   0.98151   0.00000  Uiso   1.00
C207   C     0.37035   0.51250   0.91214   0.00000  Uiso   1.00
H208   H     0.35860   0.69059   0.05008   0.00000  Uiso   1.00
H209   H     0.39690   0.69827   0.21871   0.00000  Uiso   1.00
H210   H     0.27347   0.74399   0.00459   0.00000  Uiso   1.00
H211   H     0.41360   0.64244   0.92086   0.00000  Uiso   1.00
H212   H     0.42643   0.68642   0.41520   0.00000  Uiso   1.00
H213   H     0.16618   0.78282   0.96368   0.00000  Uiso   1.00
H214   H     0.46166   0.56869   0.78712   0.00000  Uiso   1.00
H215   H     0.25908   0.53359   0.12342   0.00000  Uiso   1.00
H216   H     0.29191   0.53266   0.29608   0.00000  Uiso   1.00
H217   H     0.16849   0.57838   0.08196   0.00000  Uiso   1.00
H218   H     0.30861   0.47683   0.99823   0.00000  Uiso   1.00
H219   H     0.34122   0.55201   0.47800   0.00000  Uiso   1.00
H220   H     0.08097   0.64840   0.02647   0.00000  Uiso   1.00
H221   H     0.37645   0.43427   0.84992   0.00000  Uiso   1.00
O222   O     0.40720   0.62144   0.55887   0.00000  Uiso   1.00
O223   O     0.06577   0.74791   0.96647   0.00000  Uiso   1.00
O224   O     0.45343   0.46698   0.73484   0.00000  Uiso   1.00
N225   N     0.40187   0.65491   0.40628   0.00000  Uiso   1.00
N226   N     0.15856   0.74504   0.98415   0.00000  Uiso   1.00
N227   N     0.43479   0.54485   0.81906   0.00000  Uiso   1.00
N228   N     0.35602   0.58258   0.44007   0.00000  Uiso   1.00
N229   N     0.11271   0.67271   0.01794   0.00000  Uiso   1.00
N230   N     0.38894   0.47252   0.85285   0.00000  Uiso   1.00
C231   C     0.83580   0.15462   0.56688   0.00000  Uiso   1.00
C232   C     0.84281   0.13702   0.66867   0.00000  Uiso   1.00
C233   C     0.87424   0.16251   0.73544   0.00000  Uiso   1.00
C234   C     0.87535   0.14015   0.82466   0.00000  Uiso   1.00
C235   C     0.89067   0.11987   0.97945   0.00000  Uiso   1.00
C236   C     0.77575   0.16186   0.55235   0.00000  Uiso   1.00
C237   C     0.75080   0.20825   0.52129   0.00000  Uiso   1.00
C238   C     0.69545   0.20679   0.51258   0.00000  Uiso   1.00
C239   C     0.60666   0.22506   0.48670   0.00000  Uiso   1.00
C240   C     0.85189   0.10669   0.50686   0.00000  Uiso   1.00
C241   C     0.89094   0.10668   0.43754   0.00000  Uiso   1.00
C242   C     0.89969   0.05878   0.39052   0.00000  Uiso   1.00
C243   C     0.92911   0.99139   0.29402   0.00000  Uiso   1.00
C244   C     0.78188   0.06956   0.60662   0.00000  Uiso   1.00
C245   C     0.81352   0.09082   0.69025   0.00000  Uiso   1.00
C246   C     0.81458   0.06841   0.77940   0.00000  Uiso   1.00
C247   C     0.84601   0.09387   0.84629   0.00000  Uiso   1.00
C248   C     0.74646   0.11567   0.57393   0.00000  Uiso   1.00
C249   C     0.69114   0.11414   0.56526   0.00000  Uiso   1.00
C250   C     0.66611   0.16051   0.53421   0.00000  Uiso   1.00
C251   C     0.82260   0.06049   0.52844   0.00000  Uiso   1.00
C252   C     0.83128   0.01258   0.48151   0.00000  Uiso   1.00
C253   C     0.87035   0.01250   0.41214   0.00000  Uiso   1.00
H254   H     0.85860   0.19059   0.55008   0.00000  Uiso   1.00
H255   H     0.89690   0.19827   0.71871   0.00000  Uiso   1.00
H256   H     0.77347   0.24399   0.50459   0.00000  Uiso   1.00
H257   H     0.91360   0.14244   0.42086   0.00000  Uiso   1.00
H258   H     0.92643   0.18642   0.91520   0.00000  Uiso   1.00
H259   H     0.66618   0.28282   0.46368   0.00000  Uiso   1.00
H260   H     0.96166   0.06869   0.28712   0.00000  Uiso   1.00
H261   H     0.75908   0.03359   0.62342   0.00000  Uiso   1.00
H262   H     0.79191   0.03266   0.79608   0.00000  Uiso   1.00
H263   H     0.66849   0.07838   0.58196   0.00000  Uiso   1.00
H264   H     0.80861   0.97683   0.49823   0.00000  Uiso   1.00
H265   H     0.84122   0.05201   0.97800   0.00000  Uiso   1.00
H266   H     0.58097   0.14840   0.52647   0.00000  Uiso   1.00
H267   H     0.87645   0.93427   0.34992   0.00000  Uiso   1.00
O268   O     0.90720   0.12144   0.05887   0.00000  Uiso   1.00
O269   O     0.56577   0.24791   0.46647   0.00000  Uiso   1.00
O270   O     0.95343   0.96698   0.23484   0.00000  Uiso   1.00
N271   N     0.90187   0.15491   0.90628   0.00000  Uiso   1.00
N272   N     0.65856   0.24504   0.48415   0.00000  Uiso   1.00
N273   N     0.93479   0.04485   0.31906   0.00000  Uiso   1.00
N274   N     0.85602   0.08258   0.94007   0.00000  Uiso   1.00
N275   N     0.61271   0.17271   0.51794   0.00000  Uiso   1.00
N276   N     0.88894   0.97252   0.35285   0.00000  Uiso   1.00
C277   C     0.66420   0.34538   0.06688   0.00000  Uiso   1.00
C278   C     0.65719   0.36298   0.16867   0.00000  Uiso   1.00
C279   C     0.62576   0.33749   0.23544   0.00000  Uiso   1.00
C280   C     0.62465   0.35985   0.32466   0.00000  Uiso   1.00
C281   C     0.60933   0.38013   0.47945   0.00000  Uiso   1.00
C282   C     0.72425   0.33814   0.05235   0.00000  Uiso   1.00
C283   C     0.74920   0.29175   0.02129   0.00000  Uiso   1.00
C284   C     0.80455   0.29321   0.01258   0.00000  Uiso   1.00
C285   C     0.89334   0.27494   0.98670   0.00000  Uiso   1.00
C286   C     0.64811   0.39331   0.00686   0.00000  Uiso   1.00
C287   C     0.60906   0.39332   0.93754   0.00000  Uiso   1.00
C288   C     0.60031   0.44122   0.89052   0.00000  Uiso   1.00
C289   C     0.57089   0.50861   0.79402   0.00000  Uiso   1.00
C290   C     0.71812   0.43044   0.10662   0.00000  Uiso   1.00
C291   C     0.68648   0.40918   0.19025   0.00000  Uiso   1.00
C292   C     0.68542   0.43159   0.27940   0.00000  Uiso   1.00
C293   C     0.65399   0.40613   0.34629   0.00000  Uiso   1.00
C294   C     0.75354   0.38433   0.07393   0.00000  Uiso   1.00
C295   C     0.80886   0.38586   0.06526   0.00000  Uiso   1.00
C296   C     0.83389   0.33949   0.03421   0.00000  Uiso   1.00
C297   C     0.67740   0.43951   0.02844   0.00000  Uiso   1.00
C298   C     0.66872   0.48742   0.98151   0.00000  Uiso   1.00
C299   C     0.62965   0.48750   0.91214   0.00000  Uiso   1.00
H300   H     0.64140   0.30941   0.05008   0.00000  Uiso   1.00
H301   H     0.60310   0.30173   0.21871   0.00000  Uiso   1.00
H302   H     0.72653   0.25601   0.00459   0.00000  Uiso   1.00
H303   H     0.58640   0.35756   0.92086   0.00000  Uiso   1.00
H304   H     0.57357   0.31358   0.41520   0.00000  Uiso   1.00
H305   H     0.83382   0.21718   0.96368   0.00000  Uiso   1.00
H306   H     0.53834   0.43131   0.78712   0.00000  Uiso   1.00
H307   H     0.74092   0.46641   0.12342   0.00000  Uiso   1.00
H308   H     0.70809   0.46734   0.29608   0.00000  Uiso   1.00
H309   H     0.83151   0.42162   0.08196   0.00000  Uiso   1.00
H310   H     0.69139   0.52317   0.99823   0.00000  Uiso   1.00
H311   H     0.65878   0.44799   0.47800   0.00000  Uiso   1.00
H312   H     0.91903   0.35160   0.02647   0.00000  Uiso   1.00
H313   H     0.62355   0.56573   0.84992   0.00000  Uiso   1.00
O314   O     0.59280   0.37856   0.55887   0.00000  Uiso   1.00
O315   O     0.93423   0.25209   0.96647   0.00000  Uiso   1.00
O316   O     0.54657   0.53302   0.73484   0.00000  Uiso   1.00
N317   N     0.59813   0.34509   0.40628   0.00000  Uiso   1.00
N318   N     0.84144   0.25496   0.98415   0.00000  Uiso   1.00
N319   N     0.56521   0.45515   0.81906   0.00000  Uiso   1.00
N320   N     0.64398   0.41742   0.44007   0.00000  Uiso   1.00
N321   N     0.88729   0.32729   0.01794   0.00000  Uiso   1.00
N322   N     0.61106   0.52748   0.85285   0.00000  Uiso   1.00
C323   C     0.16420   0.84538   0.56688   0.00000  Uiso   1.00
C324   C     0.15719   0.86298   0.66867   0.00000  Uiso   1.00
C325   C     0.12576   0.83749   0.73544   0.00000  Uiso   1.00
C326   C     0.12465   0.85985   0.82466   0.00000  Uiso   1.00
C327   C     0.10933   0.88013   0.97945   0.00000  Uiso   1.00
C328   C     0.22425   0.83814   0.55235   0.00000  Uiso   1.00
C329   C     0.24920   0.79175   0.52129   0.00000  Uiso   1.00
C330   C     0.30455   0.79321   0.51258   0.00000  Uiso   1.00
C331   C     0.39334   0.77494   0.48670   0.00000  Uiso   1.00
C332   C     0.14811   0.89331   0.50686   0.00000  Uiso   1.00
C333   C     0.10906   0.89332   0.43754   0.00000  Uiso   1.00
C334   C     0.10031   0.94122   0.39052   0.00000  Uiso   1.00
C335   C     0.07089   0.00861   0.29402   0.00000  Uiso   1.00
C336   C     0.21812   0.93044   0.60662   0.00000  Uiso   1.00
C337   C     0.18648   0.90918   0.69025   0.00000  Uiso   1.00
C338   C     0.18542   0.93159   0.77940   0.00000  Uiso   1.00
C339   C     0.15399   0.90613   0.84629   0.00000  Uiso   1.00
C340   C     0.25354   0.88433   0.57393   0.00000  Uiso   1.00
C341   C     0.30886   0.88586   0.56526   0.00000  Uiso   1.00
C342   C     0.33389   0.83949   0.53421   0.00000  Uiso   1.00
C343   C     0.17740   0.93951   0.52844   0.00000  Uiso   1.00
C344   C     0.16872   0.98742   0.48151   0.00000  Uiso   1.00
C345   C     0.12965   0.98750   0.41214   0.00000  Uiso   1.00
H346   H     0.14140   0.80941   0.55008   0.00000  Uiso   1.00
H347   H     0.10310   0.80173   0.71871   0.00000  Uiso   1.00
H348   H     0.22653   0.75601   0.50459   0.00000  Uiso   1.00
H349   H     0.08640   0.85756   0.42086   0.00000  Uiso   1.00
H350   H     0.07357   0.81358   0.91520   0.00000  Uiso   1.00
H351   H     0.33382   0.71718   0.46368   0.00000  Uiso   1.00
H352   H     0.03834   0.93131   0.28712   0.00000  Uiso   1.00
H353   H     0.24092   0.96641   0.62342   0.00000  Uiso   1.00
H354   H     0.20809   0.96734   0.79608   0.00000  Uiso   1.00
H355   H     0.33151   0.92162   0.58196   0.00000  Uiso   1.00
H356   H     0.19139   0.02317   0.49823   0.00000  Uiso   1.00
H357   H     0.15878   0.94799   0.97800   0.00000  Uiso   1.00
H358   H     0.41903   0.85160   0.52647   0.00000  Uiso   1.00
H359   H     0.12355   0.06573   0.34992   0.00000  Uiso   1.00
O360   O     0.09280   0.87856   0.05887   0.00000  Uiso   1.00
O361   O     0.43423   0.75209   0.46647   0.00000  Uiso   1.00
O362   O     0.04657   0.03302   0.23484   0.00000  Uiso   1.00
N363   N     0.09813   0.84509   0.90628   0.00000  Uiso   1.00
N364   N     0.34144   0.75496   0.48415   0.00000  Uiso   1.00
N365   N     0.06521   0.95515   0.31906   0.00000  Uiso   1.00
N366   N     0.14398   0.91742   0.94007   0.00000  Uiso   1.00
N367   N     0.38729   0.82729   0.51794   0.00000  Uiso   1.00
N368   N     0.11106   0.02748   0.35285   0.00000  Uiso   1.00
C369   C     0.15462   0.33580   0.81688   0.00000  Uiso   1.00
C370   C     0.13702   0.34281   0.91867   0.00000  Uiso   1.00
C371   C     0.16251   0.37424   0.98544   0.00000  Uiso   1.00
C372   C     0.14015   0.37535   0.07466   0.00000  Uiso   1.00
C373   C     0.11987   0.39067   0.22945   0.00000  Uiso   1.00
C374   C     0.16186   0.27575   0.80235   0.00000  Uiso   1.00
C375   C     0.20825   0.25080   0.77129   0.00000  Uiso   1.00
C376   C     0.20679   0.19545   0.76258   0.00000  Uiso   1.00
C377   C     0.22506   0.10666   0.73670   0.00000  Uiso   1.00
C378   C     0.10669   0.35189   0.75686   0.00000  Uiso   1.00
C379   C     0.10668   0.39094   0.68754   0.00000  Uiso   1.00
C380   C     0.05878   0.39969   0.64052   0.00000  Uiso   1.00
C381   C     0.99139   0.42911   0.54402   0.00000  Uiso   1.00
C382   C     0.06956   0.28188   0.85662   0.00000  Uiso   1.00
C383   C     0.09082   0.31352   0.94025   0.00000  Uiso   1.00
C384   C     0.06841   0.31458   0.02940   0.00000  Uiso   1.00
C385   C     0.09387   0.34601   0.09629   0.00000  Uiso   1.00
C386   C     0.11567   0.24646   0.82393   0.00000  Uiso   1.00
C387   C     0.11414   0.19114   0.81526   0.00000  Uiso   1.00
C388   C     0.16051   0.16611   0.78421   0.00000  Uiso   1.00
C389   C     0.06049   0.32260   0.77844   0.00000  Uiso   1.00
C390   C     0.01258   0.33128   0.73151   0.00000  Uiso   1.00
C391   C     0.01250   0.37035   0.66214   0.00000  Uiso   1.00
H392   H     0.19059   0.35860   0.80008   0.00000  Uiso   1.00
H393   H     0.19827   0.39690   0.96871   0.00000  Uiso   1.00
H394   H     0.24399   0.27347   0.75459   0.00000  Uiso   1.00
H395   H     0.14244   0.41360   0.67086   0.00000  Uiso   1.00
H396   H     0.18642   0.42643   0.16520   0.00000  Uiso   1.00
H397   H     0.28282   0.16618   0.71368   0.00000  Uiso   1.00
H398   H     0.06869   0.46166   0.53712   0.00000  Uiso   1.00
H399   H     0.03359   0.25908   0.87342   0.00000  Uiso   1.00
H400   H     0.03266   0.29191   0.04608   0.00000  Uiso   1.00
H401   H     0.07838   0.16849   0.83196   0.00000  Uiso   1.00
H402   H     0.97683   0.30861   0.74823   0.00000  Uiso   1.00
H403   H     0.05201   0.34122   0.22800   0.00000  Uiso   1.00
H404   H     0.14840   0.08097   0.77647   0.00000  Uiso   1.00
H405   H     0.93427   0.37645   0.59992   0.00000  Uiso   1.00
O406   O     0.12144   0.40720   0.30887   0.00000  Uiso   1.00
O407   O     0.24791   0.06577   0.71647   0.00000  Uiso   1.00
O408   O     0.96698   0.45343   0.48484   0.00000  Uiso   1.00
N409   N     0.15491   0.40187   0.15628   0.00000  Uiso   1.00
N410   N     0.24504   0.15856   0.73415   0.00000  Uiso   1.00
N411   N     0.04485   0.43479   0.56906   0.00000  Uiso   1.00
N412   N     0.08258   0.35602   0.19007   0.00000  Uiso   1.00
N413   N     0.17271   0.11271   0.76794   0.00000  Uiso   1.00
N414   N     0.97252   0.38894   0.60285   0.00000  Uiso   1.00
C415   C     0.65462   0.83580   0.31688   0.00000  Uiso   1.00
C416   C     0.63702   0.84281   0.41867   0.00000  Uiso   1.00
C417   C     0.66251   0.87424   0.48544   0.00000  Uiso   1.00
C418   C     0.64015   0.87535   0.57466   0.00000  Uiso   1.00
C419   C     0.61987   0.89067   0.72945   0.00000  Uiso   1.00
C420   C     0.66186   0.77575   0.30235   0.00000  Uiso   1.00
C421   C     0.70825   0.75080   0.27129   0.00000  Uiso   1.00
C422   C     0.70679   0.69545   0.26258   0.00000  Uiso   1.00
C423   C     0.72506   0.60666   0.23670   0.00000  Uiso   1.00
C424   C     0.60669   0.85189   0.25686   0.00000  Uiso   1.00
C425   C     0.60668   0.89094   0.18754   0.00000  Uiso   1.00
C426   C     0.55878   0.89969   0.14052   0.00000  Uiso   1.00
C427   C     0.49139   0.92911   0.04402   0.00000  Uiso   1.00
C428   C     0.56956   0.78188   0.35662   0.00000  Uiso   1.00
C429   C     0.59082   0.81352   0.44025   0.00000  Uiso   1.00
C430   C     0.56841   0.81458   0.52940   0.00000  Uiso   1.00
C431   C     0.59387   0.84601   0.59629   0.00000  Uiso   1.00
C432   C     0.61567   0.74646   0.32393   0.00000  Uiso   1.00
C433   C     0.61414   0.69114   0.31526   0.00000  Uiso   1.00
C434   C     0.66051   0.66611   0.28421   0.00000  Uiso   1.00
C435   C     0.56049   0.82260   0.27844   0.00000  Uiso   1.00
C436   C     0.51258   0.83128   0.23151   0.00000  Uiso   1.00
C437   C     0.51250   0.87035   0.16214   0.00000  Uiso   1.00
H438   H     0.69059   0.85860   0.30008   0.00000  Uiso   1.00
H439   H     0.69827   0.89690   0.46871   0.00000  Uiso   1.00
H440   H     0.74399   0.77347   0.25459   0.00000  Uiso   1.00
H441   H     0.64244   0.91360   0.17086   0.00000  Uiso   1.00
H442   H     0.68642   0.92643   0.66520   0.00000  Uiso   1.00
H443   H     0.78282   0.66618   0.21368   0.00000  Uiso   1.00
H444   H     0.56869   0.96166   0.03712   0.00000  Uiso   1.00
H445   H     0.53359   0.75908   0.37342   0.00000  Uiso   1.00
H446   H     0.53266   0.79191   0.54608   0.00000  Uiso   1.00
H447   H     0.57838   0.66849   0.33196   0.00000  Uiso   1.00
H448   H     0.47683   0.80861   0.24823   0.00000  Uiso   1.00
H449   H     0.55201   0.84122   0.72800   0.00000  Uiso   1.00
H450   H     0.64840   0.58097   0.27647   0.00000  Uiso   1.00
H451   H     0.43427   0.87645   0.09992   0.00000  Uiso   1.00
O452   O     0.62144   0.90720   0.80887   0.00000  Uiso   1.00
O453   O     0.74791   0.56577   0.21647   0.00000  Uiso   1.00
O454   O     0.46698   0.95343   0.98484   0.00000  Uiso   1.00
N455   N     0.65491   0.90187   0.65628   0.00000  Uiso   1.00
N456   N     0.74504   0.65856   0.23415   0.00000  Uiso   1.00
N457   N     0.54485   0.93479   0.06906   0.00000  Uiso   1.00
N458   N     0.58258   0.85602   0.69007   0.00000  Uiso   1.00
N459   N     0.67271   0.61271   0.26794   0.00000  Uiso   1.00
N460   N     0.47252   0.88894   0.10285   0.00000  Uiso   1.00
C461   C     0.84538   0.66420   0.81688   0.00000  Uiso   1.00
C462   C     0.86298   0.65719   0.91867   0.00000  Uiso   1.00
C463   C     0.83749   0.62576   0.98544   0.00000  Uiso   1.00
C464   C     0.85985   0.62465   0.07466   0.00000  Uiso   1.00
C465   C     0.88013   0.60933   0.22945   0.00000  Uiso   1.00
C466   C     0.83814   0.72425   0.80235   0.00000  Uiso   1.00
C467   C     0.79175   0.74920   0.77129   0.00000  Uiso   1.00
C468   C     0.79321   0.80455   0.76258   0.00000  Uiso   1.00
C469   C     0.77494   0.89334   0.73670   0.00000  Uiso   1.00
C470   C     0.89331   0.64811   0.75686   0.00000  Uiso   1.00
C471   C     0.89332   0.60906   0.68754   0.00000  Uiso   1.00
C472   C     0.94122   0.60031   0.64052   0.00000  Uiso   1.00
C473   C     0.00861   0.57089   0.54402   0.00000  Uiso   1.00
C474   C     0.93044   0.71812   0.85662   0.00000  Uiso   1.00
C475   C     0.90918   0.68648   0.94025   0.00000  Uiso   1.00
C476   C     0.93159   0.68542   0.02940   0.00000  Uiso   1.00
C477   C     0.90613   0.65399   0.09629   0.00000  Uiso   1.00
C478   C     0.88433   0.75354   0.82393   0.00000  Uiso   1.00
C479   C     0.88586   0.80886   0.81526   0.00000  Uiso   1.00
C480   C     0.83949   0.83389   0.78421   0.00000  Uiso   1.00
C481   C     0.93951   0.67740   0.77844   0.00000  Uiso   1.00
C482   C     0.98742   0.66872   0.73151   0.00000  Uiso   1.00
C483   C     0.98750   0.62965   0.66214   0.00000  Uiso   1.00
H484   H     0.80941   0.64140   0.80008   0.00000  Uiso   1.00
H485   H     0.80173   0.60310   0.96871   0.00000  Uiso   1.00
H486   H     0.75601   0.72653   0.75459   0.00000  Uiso   1.00
H487   H     0.85756   0.58640   0.67086   0.00000  Uiso   1.00
H488   H     0.81358   0.57357   0.16520   0.00000  Uiso   1.00
H489   H     0.71718   0.83382   0.71368   0.00000  Uiso   1.00
H490   H     0.93131   0.53834   0.53712   0.00000  Uiso   1.00
H491   H     0.96641   0.74092   0.87342   0.00000  Uiso   1.00
H492   H     0.96734   0.70809   0.04608   0.00000  Uiso   1.00
H493   H     0.92162   0.83151   0.83196   0.00000  Uiso   1.00
H494   H     0.02317   0.69139   0.74823   0.00000  Uiso   1.00
H495   H     0.94799   0.65878   0.22800   0.00000  Uiso   1.00
H496   H     0.85160   0.91903   0.77647   0.00000  Uiso   1.00
H497   H     0.06573   0.62355   0.59992   0.00000  Uiso   1.00
O498   O     0.87856   0.59280   0.30887   0.00000  Uiso   1.00
O499   O     0.75209   0.93423   0.71647   0.00000  Uiso   1.00
O500   O     0.03302   0.54657   0.48484   0.00000  Uiso   1.00
N501   N     0.84509   0.59813   0.15628   0.00000  Uiso   1.00
N502   N     0.75496   0.84144   0.73415   0.00000  Uiso   1.00
N503   N     0.95515   0.56521   0.56906   0.00000  Uiso   1.00
N504   N     0.91742   0.64398   0.19007   0.00000  Uiso   1.00
N505   N     0.82729   0.88729   0.76794   0.00000  Uiso   1.00
N506   N     0.02748   0.61106   0.60285   0.00000  Uiso   1.00
C507   C     0.34538   0.16420   0.31688   0.00000  Uiso   1.00
C508   C     0.36298   0.15719   0.41867   0.00000  Uiso   1.00
C509   C     0.33749   0.12576   0.48544   0.00000  Uiso   1.00
C510   C     0.35985   0.12465   0.57466   0.00000  Uiso   1.00
C511   C     0.38013   0.10933   0.72945   0.00000  Uiso   1.00
C512   C     0.33814   0.22425   0.30235   0.00000  Uiso   1.00
C513   C     0.29175   0.24920   0.27129   0.00000  Uiso   1.00
C514   C     0.29321   0.30455   0.26258   0.00000  Uiso   1.00
C515   C     0.27494   0.39334   0.23670   0.00000  Uiso   1.00
C516   C     0.39331   0.14811   0.25686   0.00000  Uiso   1.00
C517   C     0.39332   0.10906   0.18754   0.00000  Uiso   1.00
C518   C     0.44122   0.10031   0.14052   0.00000  Uiso   1.00
C519   C     0.50861   0.07089   0.04402   0.00000  Uiso   1.00
C520   C     0.43044   0.21812   0.35662   0.00000  Uiso   1.00
C521   C     0.40918   0.18648   0.44025   0.00000  Uiso   1.00
C522   C     0.43159   0.18542   0.52940   0.00000  Uiso   1.00
C523   C     0.40613   0.15399   0.59629   0.00000  Uiso   1.00
C524   C     0.38433   0.25354   0.32393   0.00000  Uiso   1.00
C525   C     0.38586   0.30886   0.31526   0.00000  Uiso   1.00
C526   C     0.33949   0.33389   0.28421   0.00000  Uiso   1.00
C527   C     0.43951   0.17740   0.27844   0.00000  Uiso   1.00
C528   C     0.48742   0.16872   0.23151   0.00000  Uiso   1.00
C529   C     0.48750   0.12965   0.16214   0.00000  Uiso   1.00
H530   H     0.30941   0.14140   0.30008   0.00000  Uiso   1.00
H531   H     0.30173   0.10310   0.46871   0.00000  Uiso   1.00
H532   H     0.25601   0.22653   0.25459   0.00000  Uiso   1.00
H533   H     0.35756   0.08640   0.17086   0.00000  Uiso   1.00
H534   H     0.31358   0.07357   0.66520   0.00000  Uiso   1.00
H535   H     0.21718   0.33382   0.21368   0.00000  Uiso   1.00
H536   H     0.43131   0.03834   0.03712   0.00000  Uiso   1.00
H537   H     0.46641   0.24092   0.37342   0.00000  Uiso   1.00
H538   H     0.46734   0.20809   0.54608   0.00000  Uiso   1.00
H539   H     0.42162   0.33151   0.33196   0.00000  Uiso   1.00
H540   H     0.52317   0.19139   0.24823   0.00000  Uiso   1.00
H541   H     0.44799   0.15878   0.72800   0.00000  Uiso   1.00
H542   H     0.35160   0.41903   0.27647   0.00000  Uiso   1.00
H543   H     0.56573   0.12355   0.09992   0.00000  Uiso   1.00
O544   O     0.37856   0.09280   0.80887   0.00000  Uiso   1.00
O545   O     0.25209   0.43423   0.21647   0.00000  Uiso   1.00
O546   O     0.53302   0.04657   0.98484   0.00000  Uiso   1.00
N547   N     0.34509   0.09813   0.65628   0.00000  Uiso   1.00
N548   N     0.25496   0.34144   0.23415   0.00000  Uiso   1.00
N549   N     0.45515   0.06521   0.06906   0.00000  Uiso   1.00
N550   N     0.41742   0.14398   0.69007   0.00000  Uiso   1.00
N551   N     0.32729   0.38729   0.26794   0.00000  Uiso   1.00
N552   N     0.52748   0.11106   0.10285   0.00000  Uiso   1.00
C553   C     0.16420   0.65462   0.68312   0.00000  Uiso   1.00
C554   C     0.15719   0.63702   0.58133   0.00000  Uiso   1.00
C555   C     0.12576   0.66251   0.51456   0.00000  Uiso   1.00
C556   C     0.12465   0.64015   0.42534   0.00000  Uiso   1.00
C557   C     0.10933   0.61987   0.27055   0.00000  Uiso   1.00
C558   C     0.22425   0.66186   0.69765   0.00000  Uiso   1.00
C559   C     0.24920   0.70825   0.72871   0.00000  Uiso   1.00
C560   C     0.30455   0.70679   0.73742   0.00000  Uiso   1.00
C561   C     0.39334   0.72506   0.76330   0.00000  Uiso   1.00
C562   C     0.14811   0.60669   0.74314   0.00000  Uiso   1.00
C563   C     0.10906   0.60668   0.81246   0.00000  Uiso   1.00
C564   C     0.10031   0.55878   0.85948   0.00000  Uiso   1.00
C565   C     0.07089   0.49139   0.95598   0.00000  Uiso   1.00
C566   C     0.21812   0.56956   0.64338   0.00000  Uiso   1.00
C567   C     0.18648   0.59082   0.55975   0.00000  Uiso   1.00
C568   C     0.18542   0.56841   0.47060   0.00000  Uiso   1.00
C569   C     0.15399   0.59387   0.40371   0.00000  Uiso   1.00
C570   C     0.25354   0.61567   0.67607   0.00000  Uiso   1.00
C571   C     0.30886   0.61414   0.68474   0.00000  Uiso   1.00
C572   C     0.33389   0.66051   0.71579   0.00000  Uiso   1.00
C573   C     0.17740   0.56049   0.72156   0.00000  Uiso   1.00
C574   C     0.16872   0.51258   0.76849   0.00000  Uiso   1.00
C575   C     0.12965   0.51250   0.83786   0.00000  Uiso   1.00
H576   H     0.14140   0.69059   0.69992   0.00000  Uiso   1.00
H577   H     0.10310   0.69827   0.53129   0.00000  Uiso   1.00
H578   H     0.22653   0.74399   0.74541   0.00000  Uiso   1.00
H579   H     0.08640   0.64244   0.82914   0.00000  Uiso   1.00
H580   H     0.07357   0.68642   0.33480   0.00000  Uiso   1.00
H581   H     0.33382   0.78282   0.78632   0.00000  Uiso   1.00
H582   H     0.03834   0.56869   0.96288   0.00000  Uiso   1.00
H583   H     0.24092   0.53359   0.62658   0.00000  Uiso   1.00
H584   H     0.20809   0.53266   0.45392   0.00000  Uiso   1.00
H585   H     0.33151   0.57838   0.66804   0.00000  Uiso   1.00
H586   H     0.19139   0.47683   0.75177   0.00000  Uiso   1.00
H587   H     0.15878   0.55201   0.27200   0.00000  Uiso   1.00
H588   H     0.41903   0.64840   0.72353   0.00000  Uiso   1.00
H589   H     0.12355   0.43427   0.90008   0.00000  Uiso   1.00
O590   O     0.09280   0.62144   0.19113   0.00000  Uiso   1.00
O591   O     0.43423   0.74791   0.78353   0.00000  Uiso   1.00
O592   O     0.04657   0.46698   0.01516   0.00000  Uiso   1.00
N593   N     0.09813   0.65491   0.34372   0.00000  Uiso   1.00
N594   N     0.34144   0.74504   0.76585   0.00000  Uiso   1.00
N595   N     0.06521   0.54485   0.93094   0.00000  Uiso   1.00
N596   N     0.14398   0.58258   0.30993   0.00000  Uiso   1.00
N597   N     0.38729   0.67271   0.73206   0.00000  Uiso   1.00
N598   N     0.11106   0.47252   0.89715   0.00000  Uiso   1.00
C599   C     0.66420   0.15462   0.18312   0.00000  Uiso   1.00
C600   C     0.65719   0.13702   0.08133   0.00000  Uiso   1.00
C601   C     0.62576   0.16251   0.01456   0.00000  Uiso   1.00
C602   C     0.62465   0.14015   0.92534   0.00000  Uiso   1.00
C603   C     0.60933   0.11987   0.77055   0.00000  Uiso   1.00
C604   C     0.72425   0.16186   0.19765   0.00000  Uiso   1.00
C605   C     0.74920   0.20825   0.22871   0.00000  Uiso   1.00
C606   C     0.80455   0.20679   0.23742   0.00000  Uiso   1.00
C607   C     0.89334   0.22506   0.26330   0.00000  Uiso   1.00
C608   C     0.64811   0.10669   0.24314   0.00000  Uiso   1.00
C609   C     0.60906   0.10668   0.31246   0.00000  Uiso   1.00
C610   C     0.60031   0.05878   0.35948   0.00000  Uiso   1.00
C611   C     0.57089   0.99139   0.45598   0.00000  Uiso   1.00
C612   C     0.71812   0.06956   0.14338   0.00000  Uiso   1.00
C613   C     0.68648   0.09082   0.05975   0.00000  Uiso   1.00
C614   C     0.68542   0.06841   0.97060   0.00000  Uiso   1.00
C615   C     0.65399   0.09387   0.90371   0.00000  Uiso   1.00
C616   C     0.75354   0.11567   0.17607   0.00000  Uiso   1.00
C617   C     0.80886   0.11414   0.18474   0.00000  Uiso   1.00
C618   C     0.83389   0.16051   0.21579   0.00000  Uiso   1.00
C619   C     0.67740   0.06049   0.22156   0.00000  Uiso   1.00
C620   C     0.66872   0.01258   0.26849   0.00000  Uiso   1.00
C621   C     0.62965   0.01250   0.33786   0.00000  Uiso   1.00
H622   H     0.64140   0.19059   0.19992   0.00000  Uiso   1.00
H623   H     0.60310   0.19827   0.03129   0.00000  Uiso   1.00
H624   H     0.72653   0.24399   0.24541   0.00000  Uiso   1.00
H625   H     0.58640   0.14244   0.32914   0.00000  Uiso   1.00
H626   H     0.57357   0.18642   0.83480   0.00000  Uiso   1.00
H627   H     0.83382   0.28282   0.28632   0.00000  Uiso   1.00
H628   H     0.53834   0.06869   0.46288   0.00000  Uiso   1.00
H629   H     0.74092   0.03359   0.12658   0.00000  Uiso   1.00
H630   H     0.70809   0.03266   0.95392   0.00000  Uiso   1.00
H631   H     0.83151   0.07838   0.16804   0.00000  Uiso   1.00
H632   H     0.69139   0.97683   0.25177   0.00000  Uiso   1.00
H633   H     0.65878   0.05201   0.77200   0.00000  Uiso   1.00
H634   H     0.91903   0.14840   0.22353   0.00000  Uiso   1.00
H635   H     0.62355   0.93427   0.40008   0.00000  Uiso   1.00
O636   O     0.59280   0.12144   0.69113   0.00000  Uiso   1.00
O637   O     0.93423   0.24791   0.28353   0.00000  Uiso   1.00
O638   O     0.54657   0.96698   0.51516   0.00000  Uiso   1.00
N639   N     0.59813   0.15491   0.84372   0.00000  Uiso   1.00
N640   N     0.84144   0.24504   0.26585   0.00000  Uiso   1.00
N641   N     0.56521   0.04485   0.43094   0.00000  Uiso   1.00
N642   N     0.64398   0.08258   0.80993   0.00000  Uiso   1.00
N643   N     0.88729   0.17271   0.23206   0.00000  Uiso   1.00
N644   N     0.61106   0.97252   0.39715   0.00000  Uiso   1.00
C645   C     0.83580   0.34538   0.68312   0.00000  Uiso   1.00
C646   C     0.84281   0.36298   0.58133   0.00000  Uiso   1.00
C647   C     0.87424   0.33749   0.51456   0.00000  Uiso   1.00
C648   C     0.87535   0.35985   0.42534   0.00000  Uiso   1.00
C649   C     0.89067   0.38013   0.27055   0.00000  Uiso   1.00
C650   C     0.77575   0.33814   0.69765   0.00000  Uiso   1.00
C651   C     0.75080   0.29175   0.72871   0.00000  Uiso   1.00
C652   C     0.69545   0.29321   0.73742   0.00000  Uiso   1.00
C653   C     0.60666   0.27494   0.76330   0.00000  Uiso   1.00
C654   C     0.85189   0.39331   0.74314   0.00000  Uiso   1.00
C655   C     0.89094   0.39332   0.81246   0.00000  Uiso   1.00
C656   C     0.89969   0.44122   0.85948   0.00000  Uiso   1.00
C657   C     0.92911   0.50861   0.95598   0.00000  Uiso   1.00
C658   C     0.78188   0.43044   0.64338   0.00000  Uiso   1.00
C659   C     0.81352   0.40918   0.55975   0.00000  Uiso   1.00
C660   C     0.81458   0.43159   0.47060   0.00000  Uiso   1.00
C661   C     0.84601   0.40613   0.40371   0.00000  Uiso   1.00
C662   C     0.74646   0.38433   0.67607   0.00000  Uiso   1.00
C663   C     0.69114   0.38586   0.68474   0.00000  Uiso   1.00
C664   C     0.66611   0.33949   0.71579   0.00000  Uiso   1.00
C665   C     0.82260   0.43951   0.72156   0.00000  Uiso   1.00
C666   C     0.83128   0.48742   0.76849   0.00000  Uiso   1.00
C667   C     0.87035   0.48750   0.83786   0.00000  Uiso   1.00
H668   H     0.85860   0.30941   0.69992   0.00000  Uiso   1.00
H669   H     0.89690   0.30173   0.53129   0.00000  Uiso   1.00
H670   H     0.77347   0.25601   0.74541   0.00000  Uiso   1.00
H671   H     0.91360   0.35756   0.82914   0.00000  Uiso   1.00
H672   H     0.92643   0.31358   0.33480   0.00000  Uiso   1.00
H673   H     0.66618   0.21718   0.78632   0.00000  Uiso   1.00
H674   H     0.96166   0.43131   0.96288   0.00000  Uiso   1.00
H675   H     0.75908   0.46641   0.62658   0.00000  Uiso   1.00
H676   H     0.79191   0.46734   0.45392   0.00000  Uiso   1.00
H677   H     0.66849   0.42162   0.66804   0.00000  Uiso   1.00
H678   H     0.80861   0.52317   0.75177   0.00000  Uiso   1.00
H679   H     0.84122   0.44799   0.27200   0.00000  Uiso   1.00
H680   H     0.58097   0.35160   0.72353   0.00000  Uiso   1.00
H681   H     0.87645   0.56573   0.90008   0.00000  Uiso   1.00
O682   O     0.90720   0.37856   0.19113   0.00000  Uiso   1.00
O683   O     0.56577   0.25209   0.78353   0.00000  Uiso   1.00
O684   O     0.95343   0.53302   0.01516   0.00000  Uiso   1.00
N685   N     0.90187   0.34509   0.34372   0.00000  Uiso   1.00
N686   N     0.65856   0.25496   0.76585   0.00000  Uiso   1.00
N687   N     0.93479   0.45515   0.93094   0.00000  Uiso   1.00
N688   N     0.85602   0.41742   0.30993   0.00000  Uiso   1.00
N689   N     0.61271   0.32729   0.73206   0.00000  Uiso   1.00
N690   N     0.88894   0.52748   0.89715   0.00000  Uiso   1.00
C691   C     0.33580   0.84538   0.18312   0.00000  Uiso   1.00
C692   C     0.34281   0.86298   0.08133   0.00000  Uiso   1.00
C693   C     0.37424   0.83749   0.01456   0.00000  Uiso   1.00
C694   C     0.37535   0.85985   0.92534   0.00000  Uiso   1.00
C695   C     0.39067   0.88013   0.77055   0.00000  Uiso   1.00
C696   C     0.27575   0.83814   0.19765   0.00000  Uiso   1.00
C697   C     0.25080   0.79175   0.22871   0.00000  Uiso   1.00
C698   C     0.19545   0.79321   0.23742   0.00000  Uiso   1.00
C699   C     0.10666   0.77494   0.26330   0.00000  Uiso   1.00
C700   C     0.35189   0.89331   0.24314   0.00000  Uiso   1.00
C701   C     0.39094   0.89332   0.31246   0.00000  Uiso   1.00
C702   C     0.39969   0.94122   0.35948   0.00000  Uiso   1.00
C703   C     0.42911   0.00861   0.45598   0.00000  Uiso   1.00
C704   C     0.28188   0.93044   0.14338   0.00000  Uiso   1.00
C705   C     0.31352   0.90918   0.05975   0.00000  Uiso   1.00
C706   C     0.31458   0.93159   0.97060   0.00000  Uiso   1.00
C707   C     0.34601   0.90613   0.90371   0.00000  Uiso   1.00
C708   C     0.24646   0.88433   0.17607   0.00000  Uiso   1.00
C709   C     0.19114   0.88586   0.18474   0.00000  Uiso   1.00
C710   C     0.16611   0.83949   0.21579   0.00000  Uiso   1.00
C711   C     0.32260   0.93951   0.22156   0.00000  Uiso   1.00
C712   C     0.33128   0.98742   0.26849   0.00000  Uiso   1.00
C713   C     0.37035   0.98750   0.33786   0.00000  Uiso   1.00
H714   H     0.35860   0.80941   0.19992   0.00000  Uiso   1.00
H715   H     0.39690   0.80173   0.03129   0.00000  Uiso   1.00
H716   H     0.27347   0.75601   0.24541   0.00000  Uiso   1.00
H717   H     0.41360   0.85756   0.32914   0.00000  Uiso   1.00
H718   H     0.42643   0.81358   0.83480   0.00000  Uiso   1.00
H719   H     0.16618   0.71718   0.28632   0.00000  Uiso   1.00
H720   H     0.46166   0.93131   0.46288   0.00000  Uiso   1.00
H721   H     0.25908   0.96641   0.12658   0.00000  Uiso   1.00
H722   H     0.29191   0.96734   0.95392   0.00000  Uiso   1.00
H723   H     0.16849   0.92162   0.16804   0.00000  Uiso   1.00
H724   H     0.30861   0.02317   0.25177   0.00000  Uiso   1.00
H725   H     0.34122   0.94799   0.77200   0.00000  Uiso   1.00
H726   H     0.08097   0.85160   0.22353   0.00000  Uiso   1.00
H727   H     0.37645   0.06573   0.40008   0.00000  Uiso   1.00
O728   O     0.40720   0.87856   0.69113   0.00000  Uiso   1.00
O729   O     0.06577   0.75209   0.28353   0.00000  Uiso   1.00
O730   O     0.45343   0.03302   0.51516   0.00000  Uiso   1.00
N731   N     0.40187   0.84509   0.84372   0.00000  Uiso   1.00
N732   N     0.15856   0.75496   0.26585   0.00000  Uiso   1.00
N733   N     0.43479   0.95515   0.43094   0.00000  Uiso   1.00
N734   N     0.35602   0.91742   0.80993   0.00000  Uiso   1.00
N735   N     0.11271   0.82729   0.23206   0.00000  Uiso   1.00
N736   N     0.38894   0.02748   0.39715   0.00000  Uiso   1.00
