data_job_05628
_audit_creation_date              2018-12-19
_audit_creation_method            'Materials Studio'
_symmetry_space_group_name_H-M    'P1'
_symmetry_Int_Tables_number       1
_symmetry_cell_setting            triclinic
loop_
_symmetry_equiv_pos_as_xyz
  x,y,z
_cell_length_a                    21.9881
_cell_length_b                    21.9881
_cell_length_c                    22.6049
_cell_angle_alpha                 90.0000
_cell_angle_beta                  90.0000
_cell_angle_gamma                 90.0000
loop_
_atom_site_label
_atom_site_type_symbol
_atom_site_fract_x
_atom_site_fract_y
_atom_site_fract_z
_atom_site_U_iso_or_equiv
_atom_site_adp_type
_atom_site_occupancy
C1     C     0.08039   0.37655   0.94158   0.00000  Uiso   1.00
C2     C     0.13820   0.33829   0.93945   0.00000  Uiso   1.00
C3     C     0.14512   0.28369   0.90940   0.00000  Uiso   1.00
C4     C     0.20160   0.25569   0.91292   0.00000  Uiso   1.00
C5     C     0.28408   0.19236   0.90471   0.00000  Uiso   1.00
C6     C     0.06506   0.38428   0.00694   0.00000  Uiso   1.00
C7     C     0.01049   0.36835   0.03362   0.00000  Uiso   1.00
C8     C     0.00540   0.37907   0.09395   0.00000  Uiso   1.00
C9     C     0.97433   0.38718   0.19051   0.00000  Uiso   1.00
C10    C     0.09820   0.43952   0.91925   0.00000  Uiso   1.00
C11    C     0.07149   0.47005   0.87222   0.00000  Uiso   1.00
C12    C     0.09429   0.52728   0.85873   0.00000  Uiso   1.00
C13    C     0.11467   0.62115   0.81914   0.00000  Uiso   1.00
C14    C     0.16837   0.42390   0.00127   0.00000  Uiso   1.00
C15    C     0.18598   0.36401   0.97188   0.00000  Uiso   1.00
C16    C     0.24247   0.33608   0.97544   0.00000  Uiso   1.00
C17    C     0.24947   0.28145   0.94540   0.00000  Uiso   1.00
C18    C     0.11285   0.41000   0.03936   0.00000  Uiso   1.00
C19    C     0.10784   0.42074   0.09966   0.00000  Uiso   1.00
C20    C     0.05328   0.40483   0.12643   0.00000  Uiso   1.00
C21    C     0.14599   0.46524   0.95167   0.00000  Uiso   1.00
C22    C     0.16884   0.52243   0.93826   0.00000  Uiso   1.00
C23    C     0.14217   0.55304   0.89121   0.00000  Uiso   1.00
H24    H     0.04318   0.35652   0.91634   0.00000  Uiso   1.00
H25    H     0.10812   0.26380   0.88432   0.00000  Uiso   1.00
H26    H     0.97352   0.34845   0.00852   0.00000  Uiso   1.00
H27    H     0.03451   0.45013   0.84714   0.00000  Uiso   1.00
H28    H     0.20119   0.17233   0.86313   0.00000  Uiso   1.00
H29    H     0.91736   0.35085   0.12501   0.00000  Uiso   1.00
H30    H     0.04596   0.56525   0.78471   0.00000  Uiso   1.00
H31    H     0.20558   0.44393   0.02651   0.00000  Uiso   1.00
H32    H     0.27944   0.35600   0.00053   0.00000  Uiso   1.00
H33    H     0.14483   0.44065   0.12474   0.00000  Uiso   1.00
H34    H     0.20582   0.54232   0.96335   0.00000  Uiso   1.00
H35    H     0.34024   0.24716   0.95746   0.00000  Uiso   1.00
H36    H     0.05640   0.42568   0.21934   0.00000  Uiso   1.00
H37    H     0.18501   0.64008   0.87904   0.00000  Uiso   1.00
O38    O     0.31637   0.15032   0.89124   0.00000  Uiso   1.00
O39    O     0.94398   0.38454   0.23481   0.00000  Uiso   1.00
O40    O     0.11271   0.66582   0.78834   0.00000  Uiso   1.00
N41    N     0.22378   0.20202   0.88889   0.00000  Uiso   1.00
N42    N     0.95842   0.36891   0.13373   0.00000  Uiso   1.00
N43    N     0.07865   0.56936   0.81559   0.00000  Uiso   1.00
N44    N     0.29861   0.24228   0.93965   0.00000  Uiso   1.00
N45    N     0.03324   0.40917   0.18449   0.00000  Uiso   1.00
N46    N     0.15347   0.60963   0.86634   0.00000  Uiso   1.00
C47    C     0.58039   0.87655   0.44158   0.00000  Uiso   1.00
C48    C     0.63820   0.83829   0.43945   0.00000  Uiso   1.00
C49    C     0.64512   0.78369   0.40940   0.00000  Uiso   1.00
C50    C     0.70160   0.75569   0.41292   0.00000  Uiso   1.00
C51    C     0.78408   0.69236   0.40471   0.00000  Uiso   1.00
C52    C     0.56506   0.88428   0.50694   0.00000  Uiso   1.00
C53    C     0.51049   0.86835   0.53362   0.00000  Uiso   1.00
C54    C     0.50540   0.87907   0.59395   0.00000  Uiso   1.00
C55    C     0.47433   0.88718   0.69051   0.00000  Uiso   1.00
C56    C     0.59820   0.93952   0.41925   0.00000  Uiso   1.00
C57    C     0.57149   0.97005   0.37222   0.00000  Uiso   1.00
C58    C     0.59429   0.02728   0.35873   0.00000  Uiso   1.00
C59    C     0.61467   0.12115   0.31914   0.00000  Uiso   1.00
C60    C     0.66837   0.92390   0.50127   0.00000  Uiso   1.00
C61    C     0.68598   0.86401   0.47188   0.00000  Uiso   1.00
C62    C     0.74247   0.83608   0.47544   0.00000  Uiso   1.00
C63    C     0.74947   0.78145   0.44540   0.00000  Uiso   1.00
C64    C     0.61285   0.91000   0.53936   0.00000  Uiso   1.00
C65    C     0.60784   0.92074   0.59966   0.00000  Uiso   1.00
C66    C     0.55328   0.90483   0.62643   0.00000  Uiso   1.00
C67    C     0.64599   0.96524   0.45167   0.00000  Uiso   1.00
C68    C     0.66884   0.02243   0.43826   0.00000  Uiso   1.00
C69    C     0.64217   0.05304   0.39121   0.00000  Uiso   1.00
H70    H     0.54318   0.85652   0.41634   0.00000  Uiso   1.00
H71    H     0.60812   0.76380   0.38432   0.00000  Uiso   1.00
H72    H     0.47352   0.84845   0.50852   0.00000  Uiso   1.00
H73    H     0.53451   0.95013   0.34714   0.00000  Uiso   1.00
H74    H     0.70119   0.67233   0.36313   0.00000  Uiso   1.00
H75    H     0.41736   0.85085   0.62501   0.00000  Uiso   1.00
H76    H     0.54596   0.06525   0.28471   0.00000  Uiso   1.00
H77    H     0.70558   0.94393   0.52651   0.00000  Uiso   1.00
H78    H     0.77944   0.85600   0.50053   0.00000  Uiso   1.00
H79    H     0.64483   0.94065   0.62474   0.00000  Uiso   1.00
H80    H     0.70582   0.04232   0.46335   0.00000  Uiso   1.00
H81    H     0.84024   0.74716   0.45746   0.00000  Uiso   1.00
H82    H     0.55640   0.92568   0.71934   0.00000  Uiso   1.00
H83    H     0.68501   0.14008   0.37904   0.00000  Uiso   1.00
O84    O     0.81637   0.65032   0.39124   0.00000  Uiso   1.00
O85    O     0.44398   0.88454   0.73481   0.00000  Uiso   1.00
O86    O     0.61271   0.16582   0.28834   0.00000  Uiso   1.00
N87    N     0.72378   0.70202   0.38889   0.00000  Uiso   1.00
N88    N     0.45842   0.86891   0.63373   0.00000  Uiso   1.00
N89    N     0.57865   0.06936   0.31559   0.00000  Uiso   1.00
N90    N     0.79861   0.74228   0.43965   0.00000  Uiso   1.00
N91    N     0.53324   0.90917   0.68449   0.00000  Uiso   1.00
N92    N     0.65347   0.10963   0.36634   0.00000  Uiso   1.00
C93    C     0.41961   0.12345   0.44158   0.00000  Uiso   1.00
C94    C     0.36180   0.16171   0.43945   0.00000  Uiso   1.00
C95    C     0.35488   0.21631   0.40940   0.00000  Uiso   1.00
C96    C     0.29840   0.24431   0.41292   0.00000  Uiso   1.00
C97    C     0.21592   0.30764   0.40471   0.00000  Uiso   1.00
C98    C     0.43494   0.11572   0.50694   0.00000  Uiso   1.00
C99    C     0.48951   0.13165   0.53362   0.00000  Uiso   1.00
C100   C     0.49460   0.12093   0.59395   0.00000  Uiso   1.00
C101   C     0.52567   0.11282   0.69051   0.00000  Uiso   1.00
C102   C     0.40180   0.06048   0.41925   0.00000  Uiso   1.00
C103   C     0.42851   0.02995   0.37222   0.00000  Uiso   1.00
C104   C     0.40571   0.97272   0.35873   0.00000  Uiso   1.00
C105   C     0.38533   0.87885   0.31914   0.00000  Uiso   1.00
C106   C     0.33163   0.07610   0.50127   0.00000  Uiso   1.00
C107   C     0.31402   0.13599   0.47188   0.00000  Uiso   1.00
C108   C     0.25753   0.16392   0.47544   0.00000  Uiso   1.00
C109   C     0.25053   0.21855   0.44540   0.00000  Uiso   1.00
C110   C     0.38715   0.09000   0.53936   0.00000  Uiso   1.00
C111   C     0.39216   0.07926   0.59966   0.00000  Uiso   1.00
C112   C     0.44672   0.09517   0.62643   0.00000  Uiso   1.00
C113   C     0.35401   0.03476   0.45167   0.00000  Uiso   1.00
C114   C     0.33116   0.97757   0.43826   0.00000  Uiso   1.00
C115   C     0.35783   0.94696   0.39121   0.00000  Uiso   1.00
H116   H     0.45682   0.14348   0.41634   0.00000  Uiso   1.00
H117   H     0.39188   0.23620   0.38432   0.00000  Uiso   1.00
H118   H     0.52648   0.15155   0.50852   0.00000  Uiso   1.00
H119   H     0.46549   0.04987   0.34714   0.00000  Uiso   1.00
H120   H     0.29881   0.32767   0.36313   0.00000  Uiso   1.00
H121   H     0.58264   0.14915   0.62501   0.00000  Uiso   1.00
H122   H     0.45404   0.93475   0.28471   0.00000  Uiso   1.00
H123   H     0.29442   0.05607   0.52651   0.00000  Uiso   1.00
H124   H     0.22056   0.14400   0.50053   0.00000  Uiso   1.00
H125   H     0.35517   0.05935   0.62474   0.00000  Uiso   1.00
H126   H     0.29418   0.95768   0.46335   0.00000  Uiso   1.00
H127   H     0.15976   0.25284   0.45746   0.00000  Uiso   1.00
H128   H     0.44360   0.07432   0.71934   0.00000  Uiso   1.00
H129   H     0.31499   0.85992   0.37904   0.00000  Uiso   1.00
O130   O     0.18363   0.34968   0.39124   0.00000  Uiso   1.00
O131   O     0.55602   0.11546   0.73481   0.00000  Uiso   1.00
O132   O     0.38729   0.83418   0.28834   0.00000  Uiso   1.00
N133   N     0.27622   0.29798   0.38889   0.00000  Uiso   1.00
N134   N     0.54158   0.13109   0.63373   0.00000  Uiso   1.00
N135   N     0.42135   0.93064   0.31559   0.00000  Uiso   1.00
N136   N     0.20139   0.25772   0.43965   0.00000  Uiso   1.00
N137   N     0.46676   0.09083   0.68449   0.00000  Uiso   1.00
N138   N     0.34653   0.89037   0.36634   0.00000  Uiso   1.00
C139   C     0.91961   0.62345   0.94158   0.00000  Uiso   1.00
C140   C     0.86180   0.66171   0.93945   0.00000  Uiso   1.00
C141   C     0.85488   0.71631   0.90940   0.00000  Uiso   1.00
C142   C     0.79840   0.74431   0.91292   0.00000  Uiso   1.00
C143   C     0.71592   0.80764   0.90471   0.00000  Uiso   1.00
C144   C     0.93494   0.61572   0.00694   0.00000  Uiso   1.00
C145   C     0.98951   0.63165   0.03362   0.00000  Uiso   1.00
C146   C     0.99460   0.62093   0.09395   0.00000  Uiso   1.00
C147   C     0.02567   0.61282   0.19051   0.00000  Uiso   1.00
C148   C     0.90180   0.56048   0.91925   0.00000  Uiso   1.00
C149   C     0.92851   0.52995   0.87222   0.00000  Uiso   1.00
C150   C     0.90571   0.47272   0.85873   0.00000  Uiso   1.00
C151   C     0.88533   0.37885   0.81914   0.00000  Uiso   1.00
C152   C     0.83163   0.57610   0.00127   0.00000  Uiso   1.00
C153   C     0.81402   0.63599   0.97188   0.00000  Uiso   1.00
C154   C     0.75753   0.66392   0.97544   0.00000  Uiso   1.00
C155   C     0.75053   0.71855   0.94540   0.00000  Uiso   1.00
C156   C     0.88715   0.59000   0.03936   0.00000  Uiso   1.00
C157   C     0.89216   0.57926   0.09966   0.00000  Uiso   1.00
C158   C     0.94672   0.59517   0.12643   0.00000  Uiso   1.00
C159   C     0.85401   0.53476   0.95167   0.00000  Uiso   1.00
C160   C     0.83116   0.47757   0.93826   0.00000  Uiso   1.00
C161   C     0.85783   0.44696   0.89121   0.00000  Uiso   1.00
H162   H     0.95682   0.64348   0.91634   0.00000  Uiso   1.00
H163   H     0.89188   0.73620   0.88432   0.00000  Uiso   1.00
H164   H     0.02648   0.65155   0.00852   0.00000  Uiso   1.00
H165   H     0.96549   0.54987   0.84714   0.00000  Uiso   1.00
H166   H     0.79881   0.82767   0.86313   0.00000  Uiso   1.00
H167   H     0.08264   0.64915   0.12501   0.00000  Uiso   1.00
H168   H     0.95404   0.43475   0.78471   0.00000  Uiso   1.00
H169   H     0.79442   0.55607   0.02651   0.00000  Uiso   1.00
H170   H     0.72056   0.64400   0.00053   0.00000  Uiso   1.00
H171   H     0.85517   0.55935   0.12474   0.00000  Uiso   1.00
H172   H     0.79418   0.45768   0.96335   0.00000  Uiso   1.00
H173   H     0.65976   0.75284   0.95746   0.00000  Uiso   1.00
H174   H     0.94360   0.57432   0.21934   0.00000  Uiso   1.00
H175   H     0.81499   0.35992   0.87904   0.00000  Uiso   1.00
O176   O     0.68363   0.84968   0.89124   0.00000  Uiso   1.00
O177   O     0.05602   0.61546   0.23481   0.00000  Uiso   1.00
O178   O     0.88729   0.33418   0.78834   0.00000  Uiso   1.00
N179   N     0.77622   0.79798   0.88889   0.00000  Uiso   1.00
N180   N     0.04158   0.63109   0.13373   0.00000  Uiso   1.00
N181   N     0.92135   0.43064   0.81559   0.00000  Uiso   1.00
N182   N     0.70139   0.75772   0.93965   0.00000  Uiso   1.00
N183   N     0.96676   0.59083   0.18449   0.00000  Uiso   1.00
N184   N     0.84653   0.39037   0.86634   0.00000  Uiso   1.00
C185   C     0.62345   0.58039   0.19158   0.00000  Uiso   1.00
C186   C     0.66171   0.63820   0.18945   0.00000  Uiso   1.00
C187   C     0.71631   0.64512   0.15940   0.00000  Uiso   1.00
C188   C     0.74431   0.70160   0.16292   0.00000  Uiso   1.00
C189   C     0.80764   0.78408   0.15471   0.00000  Uiso   1.00
C190   C     0.61572   0.56506   0.25694   0.00000  Uiso   1.00
C191   C     0.63165   0.51049   0.28362   0.00000  Uiso   1.00
C192   C     0.62093   0.50540   0.34395   0.00000  Uiso   1.00
C193   C     0.61282   0.47433   0.44051   0.00000  Uiso   1.00
C194   C     0.56048   0.59820   0.16925   0.00000  Uiso   1.00
C195   C     0.52995   0.57149   0.12222   0.00000  Uiso   1.00
C196   C     0.47272   0.59429   0.10873   0.00000  Uiso   1.00
C197   C     0.37885   0.61467   0.06914   0.00000  Uiso   1.00
C198   C     0.57610   0.66837   0.25127   0.00000  Uiso   1.00
C199   C     0.63599   0.68598   0.22188   0.00000  Uiso   1.00
C200   C     0.66392   0.74247   0.22544   0.00000  Uiso   1.00
C201   C     0.71855   0.74947   0.19540   0.00000  Uiso   1.00
C202   C     0.59000   0.61285   0.28936   0.00000  Uiso   1.00
C203   C     0.57926   0.60784   0.34966   0.00000  Uiso   1.00
C204   C     0.59517   0.55328   0.37643   0.00000  Uiso   1.00
C205   C     0.53476   0.64599   0.20167   0.00000  Uiso   1.00
C206   C     0.47757   0.66884   0.18826   0.00000  Uiso   1.00
C207   C     0.44696   0.64217   0.14121   0.00000  Uiso   1.00
H208   H     0.64348   0.54318   0.16634   0.00000  Uiso   1.00
H209   H     0.73620   0.60812   0.13432   0.00000  Uiso   1.00
H210   H     0.65155   0.47352   0.25852   0.00000  Uiso   1.00
H211   H     0.54987   0.53451   0.09714   0.00000  Uiso   1.00
H212   H     0.82767   0.70119   0.11313   0.00000  Uiso   1.00
H213   H     0.64915   0.41736   0.37501   0.00000  Uiso   1.00
H214   H     0.43475   0.54596   0.03471   0.00000  Uiso   1.00
H215   H     0.55607   0.70558   0.27651   0.00000  Uiso   1.00
H216   H     0.64400   0.77944   0.25053   0.00000  Uiso   1.00
H217   H     0.55935   0.64483   0.37474   0.00000  Uiso   1.00
H218   H     0.45768   0.70582   0.21335   0.00000  Uiso   1.00
H219   H     0.75284   0.84024   0.20746   0.00000  Uiso   1.00
H220   H     0.57432   0.55640   0.46934   0.00000  Uiso   1.00
H221   H     0.35992   0.68501   0.12904   0.00000  Uiso   1.00
O222   O     0.84968   0.81637   0.14124   0.00000  Uiso   1.00
O223   O     0.61546   0.44398   0.48481   0.00000  Uiso   1.00
O224   O     0.33418   0.61271   0.03834   0.00000  Uiso   1.00
N225   N     0.79798   0.72378   0.13889   0.00000  Uiso   1.00
N226   N     0.63109   0.45842   0.38373   0.00000  Uiso   1.00
N227   N     0.43064   0.57865   0.06559   0.00000  Uiso   1.00
N228   N     0.75772   0.79861   0.18965   0.00000  Uiso   1.00
N229   N     0.59083   0.53324   0.43449   0.00000  Uiso   1.00
N230   N     0.39037   0.65347   0.11634   0.00000  Uiso   1.00
C231   C     0.12345   0.08039   0.69158   0.00000  Uiso   1.00
C232   C     0.16171   0.13820   0.68945   0.00000  Uiso   1.00
C233   C     0.21631   0.14512   0.65940   0.00000  Uiso   1.00
C234   C     0.24431   0.20160   0.66292   0.00000  Uiso   1.00
C235   C     0.30764   0.28408   0.65471   0.00000  Uiso   1.00
C236   C     0.11572   0.06506   0.75694   0.00000  Uiso   1.00
C237   C     0.13165   0.01049   0.78362   0.00000  Uiso   1.00
C238   C     0.12093   0.00540   0.84395   0.00000  Uiso   1.00
C239   C     0.11282   0.97433   0.94051   0.00000  Uiso   1.00
C240   C     0.06048   0.09820   0.66925   0.00000  Uiso   1.00
C241   C     0.02995   0.07149   0.62222   0.00000  Uiso   1.00
C242   C     0.97272   0.09429   0.60873   0.00000  Uiso   1.00
C243   C     0.87885   0.11467   0.56914   0.00000  Uiso   1.00
C244   C     0.07610   0.16837   0.75127   0.00000  Uiso   1.00
C245   C     0.13599   0.18598   0.72188   0.00000  Uiso   1.00
C246   C     0.16392   0.24247   0.72544   0.00000  Uiso   1.00
C247   C     0.21855   0.24947   0.69540   0.00000  Uiso   1.00
C248   C     0.09000   0.11285   0.78936   0.00000  Uiso   1.00
C249   C     0.07926   0.10784   0.84966   0.00000  Uiso   1.00
C250   C     0.09517   0.05328   0.87643   0.00000  Uiso   1.00
C251   C     0.03476   0.14599   0.70167   0.00000  Uiso   1.00
C252   C     0.97757   0.16884   0.68826   0.00000  Uiso   1.00
C253   C     0.94696   0.14217   0.64121   0.00000  Uiso   1.00
H254   H     0.14348   0.04318   0.66634   0.00000  Uiso   1.00
H255   H     0.23620   0.10812   0.63432   0.00000  Uiso   1.00
H256   H     0.15155   0.97352   0.75852   0.00000  Uiso   1.00
H257   H     0.04987   0.03451   0.59714   0.00000  Uiso   1.00
H258   H     0.32767   0.20119   0.61313   0.00000  Uiso   1.00
H259   H     0.14915   0.91736   0.87501   0.00000  Uiso   1.00
H260   H     0.93475   0.04596   0.53471   0.00000  Uiso   1.00
H261   H     0.05607   0.20558   0.77651   0.00000  Uiso   1.00
H262   H     0.14400   0.27944   0.75053   0.00000  Uiso   1.00
H263   H     0.05935   0.14483   0.87474   0.00000  Uiso   1.00
H264   H     0.95768   0.20582   0.71335   0.00000  Uiso   1.00
H265   H     0.25284   0.34024   0.70746   0.00000  Uiso   1.00
H266   H     0.07432   0.05640   0.96934   0.00000  Uiso   1.00
H267   H     0.85992   0.18501   0.62904   0.00000  Uiso   1.00
O268   O     0.34968   0.31637   0.64124   0.00000  Uiso   1.00
O269   O     0.11546   0.94398   0.98481   0.00000  Uiso   1.00
O270   O     0.83418   0.11271   0.53834   0.00000  Uiso   1.00
N271   N     0.29798   0.22378   0.63889   0.00000  Uiso   1.00
N272   N     0.13109   0.95842   0.88373   0.00000  Uiso   1.00
N273   N     0.93064   0.07865   0.56559   0.00000  Uiso   1.00
N274   N     0.25772   0.29861   0.68965   0.00000  Uiso   1.00
N275   N     0.09083   0.03324   0.93449   0.00000  Uiso   1.00
N276   N     0.89037   0.15347   0.61634   0.00000  Uiso   1.00
C277   C     0.87655   0.91961   0.69158   0.00000  Uiso   1.00
C278   C     0.83829   0.86180   0.68945   0.00000  Uiso   1.00
C279   C     0.78369   0.85488   0.65940   0.00000  Uiso   1.00
C280   C     0.75569   0.79840   0.66292   0.00000  Uiso   1.00
C281   C     0.69236   0.71592   0.65471   0.00000  Uiso   1.00
C282   C     0.88428   0.93494   0.75694   0.00000  Uiso   1.00
C283   C     0.86835   0.98951   0.78362   0.00000  Uiso   1.00
C284   C     0.87907   0.99460   0.84395   0.00000  Uiso   1.00
C285   C     0.88718   0.02567   0.94051   0.00000  Uiso   1.00
C286   C     0.93952   0.90180   0.66925   0.00000  Uiso   1.00
C287   C     0.97005   0.92851   0.62222   0.00000  Uiso   1.00
C288   C     0.02728   0.90571   0.60873   0.00000  Uiso   1.00
C289   C     0.12115   0.88533   0.56914   0.00000  Uiso   1.00
C290   C     0.92390   0.83163   0.75127   0.00000  Uiso   1.00
C291   C     0.86401   0.81402   0.72188   0.00000  Uiso   1.00
C292   C     0.83608   0.75753   0.72544   0.00000  Uiso   1.00
C293   C     0.78145   0.75053   0.69540   0.00000  Uiso   1.00
C294   C     0.91000   0.88715   0.78936   0.00000  Uiso   1.00
C295   C     0.92074   0.89216   0.84966   0.00000  Uiso   1.00
C296   C     0.90483   0.94672   0.87643   0.00000  Uiso   1.00
C297   C     0.96524   0.85401   0.70167   0.00000  Uiso   1.00
C298   C     0.02243   0.83116   0.68826   0.00000  Uiso   1.00
C299   C     0.05304   0.85783   0.64121   0.00000  Uiso   1.00
H300   H     0.85652   0.95682   0.66634   0.00000  Uiso   1.00
H301   H     0.76380   0.89188   0.63432   0.00000  Uiso   1.00
H302   H     0.84845   0.02648   0.75852   0.00000  Uiso   1.00
H303   H     0.95013   0.96549   0.59714   0.00000  Uiso   1.00
H304   H     0.67233   0.79881   0.61313   0.00000  Uiso   1.00
H305   H     0.85085   0.08264   0.87501   0.00000  Uiso   1.00
H306   H     0.06525   0.95404   0.53471   0.00000  Uiso   1.00
H307   H     0.94393   0.79442   0.77651   0.00000  Uiso   1.00
H308   H     0.85600   0.72056   0.75053   0.00000  Uiso   1.00
H309   H     0.94065   0.85517   0.87474   0.00000  Uiso   1.00
H310   H     0.04232   0.79418   0.71335   0.00000  Uiso   1.00
H311   H     0.74716   0.65976   0.70746   0.00000  Uiso   1.00
H312   H     0.92568   0.94360   0.96934   0.00000  Uiso   1.00
H313   H     0.14008   0.81499   0.62904   0.00000  Uiso   1.00
O314   O     0.65032   0.68363   0.64124   0.00000  Uiso   1.00
O315   O     0.88454   0.05602   0.98481   0.00000  Uiso   1.00
O316   O     0.16582   0.88729   0.53834   0.00000  Uiso   1.00
N317   N     0.70202   0.77622   0.63889   0.00000  Uiso   1.00
N318   N     0.86891   0.04158   0.88373   0.00000  Uiso   1.00
N319   N     0.06936   0.92135   0.56559   0.00000  Uiso   1.00
N320   N     0.74228   0.70139   0.68965   0.00000  Uiso   1.00
N321   N     0.90917   0.96676   0.93449   0.00000  Uiso   1.00
N322   N     0.10963   0.84653   0.61634   0.00000  Uiso   1.00
C323   C     0.37655   0.41961   0.19158   0.00000  Uiso   1.00
C324   C     0.33829   0.36180   0.18945   0.00000  Uiso   1.00
C325   C     0.28369   0.35488   0.15940   0.00000  Uiso   1.00
C326   C     0.25569   0.29840   0.16292   0.00000  Uiso   1.00
C327   C     0.19236   0.21592   0.15471   0.00000  Uiso   1.00
C328   C     0.38428   0.43494   0.25694   0.00000  Uiso   1.00
C329   C     0.36835   0.48951   0.28362   0.00000  Uiso   1.00
C330   C     0.37907   0.49460   0.34395   0.00000  Uiso   1.00
C331   C     0.38718   0.52567   0.44051   0.00000  Uiso   1.00
C332   C     0.43952   0.40180   0.16925   0.00000  Uiso   1.00
C333   C     0.47005   0.42851   0.12222   0.00000  Uiso   1.00
C334   C     0.52728   0.40571   0.10873   0.00000  Uiso   1.00
C335   C     0.62115   0.38533   0.06914   0.00000  Uiso   1.00
C336   C     0.42390   0.33163   0.25127   0.00000  Uiso   1.00
C337   C     0.36401   0.31402   0.22188   0.00000  Uiso   1.00
C338   C     0.33608   0.25753   0.22544   0.00000  Uiso   1.00
C339   C     0.28145   0.25053   0.19540   0.00000  Uiso   1.00
C340   C     0.41000   0.38715   0.28936   0.00000  Uiso   1.00
C341   C     0.42074   0.39216   0.34966   0.00000  Uiso   1.00
C342   C     0.40483   0.44672   0.37643   0.00000  Uiso   1.00
C343   C     0.46524   0.35401   0.20167   0.00000  Uiso   1.00
C344   C     0.52243   0.33116   0.18826   0.00000  Uiso   1.00
C345   C     0.55304   0.35783   0.14121   0.00000  Uiso   1.00
H346   H     0.35652   0.45682   0.16634   0.00000  Uiso   1.00
H347   H     0.26380   0.39188   0.13432   0.00000  Uiso   1.00
H348   H     0.34845   0.52648   0.25852   0.00000  Uiso   1.00
H349   H     0.45013   0.46549   0.09714   0.00000  Uiso   1.00
H350   H     0.17233   0.29881   0.11313   0.00000  Uiso   1.00
H351   H     0.35085   0.58264   0.37501   0.00000  Uiso   1.00
H352   H     0.56525   0.45404   0.03471   0.00000  Uiso   1.00
H353   H     0.44393   0.29442   0.27651   0.00000  Uiso   1.00
H354   H     0.35600   0.22056   0.25053   0.00000  Uiso   1.00
H355   H     0.44065   0.35517   0.37474   0.00000  Uiso   1.00
H356   H     0.54232   0.29418   0.21335   0.00000  Uiso   1.00
H357   H     0.24716   0.15976   0.20746   0.00000  Uiso   1.00
H358   H     0.42568   0.44360   0.46934   0.00000  Uiso   1.00
H359   H     0.64008   0.31499   0.12904   0.00000  Uiso   1.00
O360   O     0.15032   0.18363   0.14124   0.00000  Uiso   1.00
O361   O     0.38454   0.55602   0.48481   0.00000  Uiso   1.00
O362   O     0.66582   0.38729   0.03834   0.00000  Uiso   1.00
N363   N     0.20202   0.27622   0.13889   0.00000  Uiso   1.00
N364   N     0.36891   0.54158   0.38373   0.00000  Uiso   1.00
N365   N     0.56936   0.42135   0.06559   0.00000  Uiso   1.00
N366   N     0.24228   0.20139   0.18965   0.00000  Uiso   1.00
N367   N     0.40917   0.46676   0.43449   0.00000  Uiso   1.00
N368   N     0.60963   0.34653   0.11634   0.00000  Uiso   1.00
C369   C     0.91961   0.12345   0.30842   0.00000  Uiso   1.00
C370   C     0.86180   0.16171   0.31055   0.00000  Uiso   1.00
C371   C     0.85488   0.21631   0.34060   0.00000  Uiso   1.00
C372   C     0.79840   0.24431   0.33708   0.00000  Uiso   1.00
C373   C     0.71592   0.30764   0.34529   0.00000  Uiso   1.00
C374   C     0.93494   0.11572   0.24306   0.00000  Uiso   1.00
C375   C     0.98951   0.13165   0.21638   0.00000  Uiso   1.00
C376   C     0.99460   0.12093   0.15605   0.00000  Uiso   1.00
C377   C     0.02567   0.11282   0.05949   0.00000  Uiso   1.00
C378   C     0.90180   0.06048   0.33075   0.00000  Uiso   1.00
C379   C     0.92851   0.02995   0.37778   0.00000  Uiso   1.00
C380   C     0.90571   0.97272   0.39127   0.00000  Uiso   1.00
C381   C     0.88533   0.87885   0.43086   0.00000  Uiso   1.00
C382   C     0.83163   0.07610   0.24873   0.00000  Uiso   1.00
C383   C     0.81402   0.13599   0.27812   0.00000  Uiso   1.00
C384   C     0.75753   0.16392   0.27456   0.00000  Uiso   1.00
C385   C     0.75053   0.21855   0.30460   0.00000  Uiso   1.00
C386   C     0.88715   0.09000   0.21064   0.00000  Uiso   1.00
C387   C     0.89216   0.07926   0.15034   0.00000  Uiso   1.00
C388   C     0.94672   0.09517   0.12357   0.00000  Uiso   1.00
C389   C     0.85401   0.03476   0.29833   0.00000  Uiso   1.00
C390   C     0.83116   0.97757   0.31174   0.00000  Uiso   1.00
C391   C     0.85783   0.94696   0.35879   0.00000  Uiso   1.00
H392   H     0.95682   0.14348   0.33366   0.00000  Uiso   1.00
H393   H     0.89188   0.23620   0.36568   0.00000  Uiso   1.00
H394   H     0.02648   0.15155   0.24148   0.00000  Uiso   1.00
H395   H     0.96549   0.04987   0.40286   0.00000  Uiso   1.00
H396   H     0.79881   0.32767   0.38687   0.00000  Uiso   1.00
H397   H     0.08264   0.14915   0.12499   0.00000  Uiso   1.00
H398   H     0.95404   0.93475   0.46529   0.00000  Uiso   1.00
H399   H     0.79442   0.05607   0.22349   0.00000  Uiso   1.00
H400   H     0.72056   0.14400   0.24947   0.00000  Uiso   1.00
H401   H     0.85517   0.05935   0.12526   0.00000  Uiso   1.00
H402   H     0.79418   0.95768   0.28665   0.00000  Uiso   1.00
H403   H     0.65976   0.25284   0.29254   0.00000  Uiso   1.00
H404   H     0.94360   0.07432   0.03066   0.00000  Uiso   1.00
H405   H     0.81499   0.85992   0.37096   0.00000  Uiso   1.00
O406   O     0.68363   0.34968   0.35876   0.00000  Uiso   1.00
O407   O     0.05602   0.11546   0.01519   0.00000  Uiso   1.00
O408   O     0.88729   0.83418   0.46166   0.00000  Uiso   1.00
N409   N     0.77622   0.29798   0.36111   0.00000  Uiso   1.00
N410   N     0.04158   0.13109   0.11627   0.00000  Uiso   1.00
N411   N     0.92135   0.93064   0.43441   0.00000  Uiso   1.00
N412   N     0.70139   0.25772   0.31035   0.00000  Uiso   1.00
N413   N     0.96676   0.09083   0.06551   0.00000  Uiso   1.00
N414   N     0.84653   0.89037   0.38366   0.00000  Uiso   1.00
C415   C     0.41961   0.62345   0.80842   0.00000  Uiso   1.00
C416   C     0.36180   0.66171   0.81055   0.00000  Uiso   1.00
C417   C     0.35488   0.71631   0.84060   0.00000  Uiso   1.00
C418   C     0.29840   0.74431   0.83708   0.00000  Uiso   1.00
C419   C     0.21592   0.80764   0.84529   0.00000  Uiso   1.00
C420   C     0.43494   0.61572   0.74306   0.00000  Uiso   1.00
C421   C     0.48951   0.63165   0.71638   0.00000  Uiso   1.00
C422   C     0.49460   0.62093   0.65605   0.00000  Uiso   1.00
C423   C     0.52567   0.61282   0.55949   0.00000  Uiso   1.00
C424   C     0.40180   0.56048   0.83075   0.00000  Uiso   1.00
C425   C     0.42851   0.52995   0.87778   0.00000  Uiso   1.00
C426   C     0.40571   0.47272   0.89127   0.00000  Uiso   1.00
C427   C     0.38533   0.37885   0.93086   0.00000  Uiso   1.00
C428   C     0.33163   0.57610   0.74873   0.00000  Uiso   1.00
C429   C     0.31402   0.63599   0.77812   0.00000  Uiso   1.00
C430   C     0.25753   0.66392   0.77456   0.00000  Uiso   1.00
C431   C     0.25053   0.71855   0.80460   0.00000  Uiso   1.00
C432   C     0.38715   0.59000   0.71064   0.00000  Uiso   1.00
C433   C     0.39216   0.57926   0.65034   0.00000  Uiso   1.00
C434   C     0.44672   0.59517   0.62357   0.00000  Uiso   1.00
C435   C     0.35401   0.53476   0.79833   0.00000  Uiso   1.00
C436   C     0.33116   0.47757   0.81174   0.00000  Uiso   1.00
C437   C     0.35783   0.44696   0.85879   0.00000  Uiso   1.00
H438   H     0.45682   0.64348   0.83366   0.00000  Uiso   1.00
H439   H     0.39188   0.73620   0.86568   0.00000  Uiso   1.00
H440   H     0.52648   0.65155   0.74148   0.00000  Uiso   1.00
H441   H     0.46549   0.54987   0.90286   0.00000  Uiso   1.00
H442   H     0.29881   0.82767   0.88687   0.00000  Uiso   1.00
H443   H     0.58264   0.64915   0.62499   0.00000  Uiso   1.00
H444   H     0.45404   0.43475   0.96529   0.00000  Uiso   1.00
H445   H     0.29442   0.55607   0.72349   0.00000  Uiso   1.00
H446   H     0.22056   0.64400   0.74947   0.00000  Uiso   1.00
H447   H     0.35517   0.55935   0.62526   0.00000  Uiso   1.00
H448   H     0.29418   0.45768   0.78665   0.00000  Uiso   1.00
H449   H     0.15976   0.75284   0.79254   0.00000  Uiso   1.00
H450   H     0.44360   0.57432   0.53066   0.00000  Uiso   1.00
H451   H     0.31499   0.35992   0.87096   0.00000  Uiso   1.00
O452   O     0.18363   0.84968   0.85876   0.00000  Uiso   1.00
O453   O     0.55602   0.61546   0.51519   0.00000  Uiso   1.00
O454   O     0.38729   0.33418   0.96166   0.00000  Uiso   1.00
N455   N     0.27622   0.79798   0.86111   0.00000  Uiso   1.00
N456   N     0.54158   0.63109   0.61627   0.00000  Uiso   1.00
N457   N     0.42135   0.43064   0.93441   0.00000  Uiso   1.00
N458   N     0.20139   0.75772   0.81035   0.00000  Uiso   1.00
N459   N     0.46676   0.59083   0.56551   0.00000  Uiso   1.00
N460   N     0.34653   0.39037   0.88366   0.00000  Uiso   1.00
C461   C     0.58039   0.37655   0.80842   0.00000  Uiso   1.00
C462   C     0.63820   0.33829   0.81055   0.00000  Uiso   1.00
C463   C     0.64512   0.28369   0.84060   0.00000  Uiso   1.00
C464   C     0.70160   0.25569   0.83708   0.00000  Uiso   1.00
C465   C     0.78408   0.19236   0.84529   0.00000  Uiso   1.00
C466   C     0.56506   0.38428   0.74306   0.00000  Uiso   1.00
C467   C     0.51049   0.36835   0.71638   0.00000  Uiso   1.00
C468   C     0.50540   0.37907   0.65605   0.00000  Uiso   1.00
C469   C     0.47433   0.38718   0.55949   0.00000  Uiso   1.00
C470   C     0.59820   0.43952   0.83075   0.00000  Uiso   1.00
C471   C     0.57149   0.47005   0.87778   0.00000  Uiso   1.00
C472   C     0.59429   0.52728   0.89127   0.00000  Uiso   1.00
C473   C     0.61467   0.62115   0.93086   0.00000  Uiso   1.00
C474   C     0.66837   0.42390   0.74873   0.00000  Uiso   1.00
C475   C     0.68598   0.36401   0.77812   0.00000  Uiso   1.00
C476   C     0.74247   0.33608   0.77456   0.00000  Uiso   1.00
C477   C     0.74947   0.28145   0.80460   0.00000  Uiso   1.00
C478   C     0.61285   0.41000   0.71064   0.00000  Uiso   1.00
C479   C     0.60784   0.42074   0.65034   0.00000  Uiso   1.00
C480   C     0.55328   0.40483   0.62357   0.00000  Uiso   1.00
C481   C     0.64599   0.46524   0.79833   0.00000  Uiso   1.00
C482   C     0.66884   0.52243   0.81174   0.00000  Uiso   1.00
C483   C     0.64217   0.55304   0.85879   0.00000  Uiso   1.00
H484   H     0.54318   0.35652   0.83366   0.00000  Uiso   1.00
H485   H     0.60812   0.26380   0.86568   0.00000  Uiso   1.00
H486   H     0.47352   0.34845   0.74148   0.00000  Uiso   1.00
H487   H     0.53451   0.45013   0.90286   0.00000  Uiso   1.00
H488   H     0.70119   0.17233   0.88687   0.00000  Uiso   1.00
H489   H     0.41736   0.35085   0.62499   0.00000  Uiso   1.00
H490   H     0.54596   0.56525   0.96529   0.00000  Uiso   1.00
H491   H     0.70558   0.44393   0.72349   0.00000  Uiso   1.00
H492   H     0.77944   0.35600   0.74947   0.00000  Uiso   1.00
H493   H     0.64483   0.44065   0.62526   0.00000  Uiso   1.00
H494   H     0.70582   0.54232   0.78665   0.00000  Uiso   1.00
H495   H     0.84024   0.24716   0.79254   0.00000  Uiso   1.00
H496   H     0.55640   0.42568   0.53066   0.00000  Uiso   1.00
H497   H     0.68501   0.64008   0.87096   0.00000  Uiso   1.00
O498   O     0.81637   0.15032   0.85876   0.00000  Uiso   1.00
O499   O     0.44398   0.38454   0.51519   0.00000  Uiso   1.00
O500   O     0.61271   0.66582   0.96166   0.00000  Uiso   1.00
N501   N     0.72378   0.20202   0.86111   0.00000  Uiso   1.00
N502   N     0.45842   0.36891   0.61627   0.00000  Uiso   1.00
N503   N     0.57865   0.56936   0.93441   0.00000  Uiso   1.00
N504   N     0.79861   0.24228   0.81035   0.00000  Uiso   1.00
N505   N     0.53324   0.40917   0.56551   0.00000  Uiso   1.00
N506   N     0.65347   0.60963   0.88366   0.00000  Uiso   1.00
C507   C     0.08039   0.87655   0.30842   0.00000  Uiso   1.00
C508   C     0.13820   0.83829   0.31055   0.00000  Uiso   1.00
C509   C     0.14512   0.78369   0.34060   0.00000  Uiso   1.00
C510   C     0.20160   0.75569   0.33708   0.00000  Uiso   1.00
C511   C     0.28408   0.69236   0.34529   0.00000  Uiso   1.00
C512   C     0.06506   0.88428   0.24306   0.00000  Uiso   1.00
C513   C     0.01049   0.86835   0.21638   0.00000  Uiso   1.00
C514   C     0.00540   0.87907   0.15605   0.00000  Uiso   1.00
C515   C     0.97433   0.88718   0.05949   0.00000  Uiso   1.00
C516   C     0.09820   0.93952   0.33075   0.00000  Uiso   1.00
C517   C     0.07149   0.97005   0.37778   0.00000  Uiso   1.00
C518   C     0.09429   0.02728   0.39127   0.00000  Uiso   1.00
C519   C     0.11467   0.12115   0.43086   0.00000  Uiso   1.00
C520   C     0.16837   0.92390   0.24873   0.00000  Uiso   1.00
C521   C     0.18598   0.86401   0.27812   0.00000  Uiso   1.00
C522   C     0.24247   0.83608   0.27456   0.00000  Uiso   1.00
C523   C     0.24947   0.78145   0.30460   0.00000  Uiso   1.00
C524   C     0.11285   0.91000   0.21064   0.00000  Uiso   1.00
C525   C     0.10784   0.92074   0.15034   0.00000  Uiso   1.00
C526   C     0.05328   0.90483   0.12357   0.00000  Uiso   1.00
C527   C     0.14599   0.96524   0.29833   0.00000  Uiso   1.00
C528   C     0.16884   0.02243   0.31174   0.00000  Uiso   1.00
C529   C     0.14217   0.05304   0.35879   0.00000  Uiso   1.00
H530   H     0.04318   0.85652   0.33366   0.00000  Uiso   1.00
H531   H     0.10812   0.76380   0.36568   0.00000  Uiso   1.00
H532   H     0.97352   0.84845   0.24148   0.00000  Uiso   1.00
H533   H     0.03451   0.95013   0.40286   0.00000  Uiso   1.00
H534   H     0.20119   0.67233   0.38687   0.00000  Uiso   1.00
H535   H     0.91736   0.85085   0.12499   0.00000  Uiso   1.00
H536   H     0.04596   0.06525   0.46529   0.00000  Uiso   1.00
H537   H     0.20558   0.94393   0.22349   0.00000  Uiso   1.00
H538   H     0.27944   0.85600   0.24947   0.00000  Uiso   1.00
H539   H     0.14483   0.94065   0.12526   0.00000  Uiso   1.00
H540   H     0.20582   0.04232   0.28665   0.00000  Uiso   1.00
H541   H     0.34024   0.74716   0.29254   0.00000  Uiso   1.00
H542   H     0.05640   0.92568   0.03066   0.00000  Uiso   1.00
H543   H     0.18501   0.14008   0.37096   0.00000  Uiso   1.00
O544   O     0.31637   0.65032   0.35876   0.00000  Uiso   1.00
O545   O     0.94398   0.88454   0.01519   0.00000  Uiso   1.00
O546   O     0.11271   0.16582   0.46166   0.00000  Uiso   1.00
N547   N     0.22378   0.70202   0.36111   0.00000  Uiso   1.00
N548   N     0.95842   0.86891   0.11627   0.00000  Uiso   1.00
N549   N     0.07865   0.06936   0.43441   0.00000  Uiso   1.00
N550   N     0.29861   0.74228   0.31035   0.00000  Uiso   1.00
N551   N     0.03324   0.90917   0.06551   0.00000  Uiso   1.00
N552   N     0.15347   0.10963   0.38366   0.00000  Uiso   1.00
C553   C     0.37655   0.91961   0.05842   0.00000  Uiso   1.00
C554   C     0.33829   0.86180   0.06055   0.00000  Uiso   1.00
C555   C     0.28369   0.85488   0.09060   0.00000  Uiso   1.00
C556   C     0.25569   0.79840   0.08708   0.00000  Uiso   1.00
C557   C     0.19236   0.71592   0.09529   0.00000  Uiso   1.00
C558   C     0.38428   0.93494   0.99306   0.00000  Uiso   1.00
C559   C     0.36835   0.98951   0.96638   0.00000  Uiso   1.00
C560   C     0.37907   0.99460   0.90605   0.00000  Uiso   1.00
C561   C     0.38718   0.02567   0.80949   0.00000  Uiso   1.00
C562   C     0.43952   0.90180   0.08075   0.00000  Uiso   1.00
C563   C     0.47005   0.92851   0.12778   0.00000  Uiso   1.00
C564   C     0.52728   0.90571   0.14127   0.00000  Uiso   1.00
C565   C     0.62115   0.88533   0.18086   0.00000  Uiso   1.00
C566   C     0.42390   0.83163   0.99873   0.00000  Uiso   1.00
C567   C     0.36401   0.81402   0.02812   0.00000  Uiso   1.00
C568   C     0.33608   0.75753   0.02456   0.00000  Uiso   1.00
C569   C     0.28145   0.75053   0.05460   0.00000  Uiso   1.00
C570   C     0.41000   0.88715   0.96064   0.00000  Uiso   1.00
C571   C     0.42074   0.89216   0.90034   0.00000  Uiso   1.00
C572   C     0.40483   0.94672   0.87357   0.00000  Uiso   1.00
C573   C     0.46524   0.85401   0.04833   0.00000  Uiso   1.00
C574   C     0.52243   0.83116   0.06174   0.00000  Uiso   1.00
C575   C     0.55304   0.85783   0.10879   0.00000  Uiso   1.00
H576   H     0.35652   0.95682   0.08366   0.00000  Uiso   1.00
H577   H     0.26380   0.89188   0.11568   0.00000  Uiso   1.00
H578   H     0.34845   0.02648   0.99148   0.00000  Uiso   1.00
H579   H     0.45013   0.96549   0.15286   0.00000  Uiso   1.00
H580   H     0.17233   0.79881   0.13687   0.00000  Uiso   1.00
H581   H     0.35085   0.08264   0.87499   0.00000  Uiso   1.00
H582   H     0.56525   0.95404   0.21529   0.00000  Uiso   1.00
H583   H     0.44393   0.79442   0.97349   0.00000  Uiso   1.00
H584   H     0.35600   0.72056   0.99947   0.00000  Uiso   1.00
H585   H     0.44065   0.85517   0.87526   0.00000  Uiso   1.00
H586   H     0.54232   0.79418   0.03665   0.00000  Uiso   1.00
H587   H     0.24716   0.65976   0.04254   0.00000  Uiso   1.00
H588   H     0.42568   0.94360   0.78066   0.00000  Uiso   1.00
H589   H     0.64008   0.81499   0.12096   0.00000  Uiso   1.00
O590   O     0.15032   0.68363   0.10876   0.00000  Uiso   1.00
O591   O     0.38454   0.05602   0.76519   0.00000  Uiso   1.00
O592   O     0.66582   0.88729   0.21166   0.00000  Uiso   1.00
N593   N     0.20202   0.77622   0.11111   0.00000  Uiso   1.00
N594   N     0.36891   0.04158   0.86627   0.00000  Uiso   1.00
N595   N     0.56936   0.92135   0.18441   0.00000  Uiso   1.00
N596   N     0.24228   0.70139   0.06035   0.00000  Uiso   1.00
N597   N     0.40917   0.96676   0.81551   0.00000  Uiso   1.00
N598   N     0.60963   0.84653   0.13366   0.00000  Uiso   1.00
C599   C     0.87655   0.41961   0.55842   0.00000  Uiso   1.00
C600   C     0.83829   0.36180   0.56055   0.00000  Uiso   1.00
C601   C     0.78369   0.35488   0.59060   0.00000  Uiso   1.00
C602   C     0.75569   0.29840   0.58708   0.00000  Uiso   1.00
C603   C     0.69236   0.21592   0.59529   0.00000  Uiso   1.00
C604   C     0.88428   0.43494   0.49306   0.00000  Uiso   1.00
C605   C     0.86835   0.48951   0.46638   0.00000  Uiso   1.00
C606   C     0.87907   0.49460   0.40605   0.00000  Uiso   1.00
C607   C     0.88718   0.52567   0.30949   0.00000  Uiso   1.00
C608   C     0.93952   0.40180   0.58075   0.00000  Uiso   1.00
C609   C     0.97005   0.42851   0.62778   0.00000  Uiso   1.00
C610   C     0.02728   0.40571   0.64127   0.00000  Uiso   1.00
C611   C     0.12115   0.38533   0.68086   0.00000  Uiso   1.00
C612   C     0.92390   0.33163   0.49873   0.00000  Uiso   1.00
C613   C     0.86401   0.31402   0.52812   0.00000  Uiso   1.00
C614   C     0.83608   0.25753   0.52456   0.00000  Uiso   1.00
C615   C     0.78145   0.25053   0.55460   0.00000  Uiso   1.00
C616   C     0.91000   0.38715   0.46064   0.00000  Uiso   1.00
C617   C     0.92074   0.39216   0.40034   0.00000  Uiso   1.00
C618   C     0.90483   0.44672   0.37357   0.00000  Uiso   1.00
C619   C     0.96524   0.35401   0.54833   0.00000  Uiso   1.00
C620   C     0.02243   0.33116   0.56174   0.00000  Uiso   1.00
C621   C     0.05304   0.35783   0.60879   0.00000  Uiso   1.00
H622   H     0.85652   0.45682   0.58366   0.00000  Uiso   1.00
H623   H     0.76380   0.39188   0.61568   0.00000  Uiso   1.00
H624   H     0.84845   0.52648   0.49148   0.00000  Uiso   1.00
H625   H     0.95013   0.46549   0.65286   0.00000  Uiso   1.00
H626   H     0.67233   0.29881   0.63687   0.00000  Uiso   1.00
H627   H     0.85085   0.58264   0.37499   0.00000  Uiso   1.00
H628   H     0.06525   0.45404   0.71529   0.00000  Uiso   1.00
H629   H     0.94393   0.29442   0.47349   0.00000  Uiso   1.00
H630   H     0.85600   0.22056   0.49947   0.00000  Uiso   1.00
H631   H     0.94065   0.35517   0.37526   0.00000  Uiso   1.00
H632   H     0.04232   0.29418   0.53665   0.00000  Uiso   1.00
H633   H     0.74716   0.15976   0.54254   0.00000  Uiso   1.00
H634   H     0.92568   0.44360   0.28066   0.00000  Uiso   1.00
H635   H     0.14008   0.31499   0.62096   0.00000  Uiso   1.00
O636   O     0.65032   0.18363   0.60876   0.00000  Uiso   1.00
O637   O     0.88454   0.55602   0.26519   0.00000  Uiso   1.00
O638   O     0.16582   0.38729   0.71166   0.00000  Uiso   1.00
N639   N     0.70202   0.27622   0.61111   0.00000  Uiso   1.00
N640   N     0.86891   0.54158   0.36627   0.00000  Uiso   1.00
N641   N     0.06936   0.42135   0.68441   0.00000  Uiso   1.00
N642   N     0.74228   0.20139   0.56035   0.00000  Uiso   1.00
N643   N     0.90917   0.46676   0.31551   0.00000  Uiso   1.00
N644   N     0.10963   0.34653   0.63366   0.00000  Uiso   1.00
C645   C     0.12345   0.58039   0.55842   0.00000  Uiso   1.00
C646   C     0.16171   0.63820   0.56055   0.00000  Uiso   1.00
C647   C     0.21631   0.64512   0.59060   0.00000  Uiso   1.00
C648   C     0.24431   0.70160   0.58708   0.00000  Uiso   1.00
C649   C     0.30764   0.78408   0.59529   0.00000  Uiso   1.00
C650   C     0.11572   0.56506   0.49306   0.00000  Uiso   1.00
C651   C     0.13165   0.51049   0.46638   0.00000  Uiso   1.00
C652   C     0.12093   0.50540   0.40605   0.00000  Uiso   1.00
C653   C     0.11282   0.47433   0.30949   0.00000  Uiso   1.00
C654   C     0.06048   0.59820   0.58075   0.00000  Uiso   1.00
C655   C     0.02995   0.57149   0.62778   0.00000  Uiso   1.00
C656   C     0.97272   0.59429   0.64127   0.00000  Uiso   1.00
C657   C     0.87885   0.61467   0.68086   0.00000  Uiso   1.00
C658   C     0.07610   0.66837   0.49873   0.00000  Uiso   1.00
C659   C     0.13599   0.68598   0.52812   0.00000  Uiso   1.00
C660   C     0.16392   0.74247   0.52456   0.00000  Uiso   1.00
C661   C     0.21855   0.74947   0.55460   0.00000  Uiso   1.00
C662   C     0.09000   0.61285   0.46064   0.00000  Uiso   1.00
C663   C     0.07926   0.60784   0.40034   0.00000  Uiso   1.00
C664   C     0.09517   0.55328   0.37357   0.00000  Uiso   1.00
C665   C     0.03476   0.64599   0.54833   0.00000  Uiso   1.00
C666   C     0.97757   0.66884   0.56174   0.00000  Uiso   1.00
C667   C     0.94696   0.64217   0.60879   0.00000  Uiso   1.00
H668   H     0.14348   0.54318   0.58366   0.00000  Uiso   1.00
H669   H     0.23620   0.60812   0.61568   0.00000  Uiso   1.00
H670   H     0.15155   0.47352   0.49148   0.00000  Uiso   1.00
H671   H     0.04987   0.53451   0.65286   0.00000  Uiso   1.00
H672   H     0.32767   0.70119   0.63687   0.00000  Uiso   1.00
H673   H     0.14915   0.41736   0.37499   0.00000  Uiso   1.00
H674   H     0.93475   0.54596   0.71529   0.00000  Uiso   1.00
H675   H     0.05607   0.70558   0.47349   0.00000  Uiso   1.00
H676   H     0.14400   0.77944   0.49947   0.00000  Uiso   1.00
H677   H     0.05935   0.64483   0.37526   0.00000  Uiso   1.00
H678   H     0.95768   0.70582   0.53665   0.00000  Uiso   1.00
H679   H     0.25284   0.84024   0.54254   0.00000  Uiso   1.00
H680   H     0.07432   0.55640   0.28066   0.00000  Uiso   1.00
H681   H     0.85992   0.68501   0.62096   0.00000  Uiso   1.00
O682   O     0.34968   0.81637   0.60876   0.00000  Uiso   1.00
O683   O     0.11546   0.44398   0.26519   0.00000  Uiso   1.00
O684   O     0.83418   0.61271   0.71166   0.00000  Uiso   1.00
N685   N     0.29798   0.72378   0.61111   0.00000  Uiso   1.00
N686   N     0.13109   0.45842   0.36627   0.00000  Uiso   1.00
N687   N     0.93064   0.57865   0.68441   0.00000  Uiso   1.00
N688   N     0.25772   0.79861   0.56035   0.00000  Uiso   1.00
N689   N     0.09083   0.53324   0.31551   0.00000  Uiso   1.00
N690   N     0.89037   0.65347   0.63366   0.00000  Uiso   1.00
C691   C     0.62345   0.08039   0.05842   0.00000  Uiso   1.00
C692   C     0.66171   0.13820   0.06055   0.00000  Uiso   1.00
C693   C     0.71631   0.14512   0.09060   0.00000  Uiso   1.00
C694   C     0.74431   0.20160   0.08708   0.00000  Uiso   1.00
C695   C     0.80764   0.28408   0.09529   0.00000  Uiso   1.00
C696   C     0.61572   0.06506   0.99306   0.00000  Uiso   1.00
C697   C     0.63165   0.01049   0.96638   0.00000  Uiso   1.00
C698   C     0.62093   0.00540   0.90605   0.00000  Uiso   1.00
C699   C     0.61282   0.97433   0.80949   0.00000  Uiso   1.00
C700   C     0.56048   0.09820   0.08075   0.00000  Uiso   1.00
C701   C     0.52995   0.07149   0.12778   0.00000  Uiso   1.00
C702   C     0.47272   0.09429   0.14127   0.00000  Uiso   1.00
C703   C     0.37885   0.11467   0.18086   0.00000  Uiso   1.00
C704   C     0.57610   0.16837   0.99873   0.00000  Uiso   1.00
C705   C     0.63599   0.18598   0.02812   0.00000  Uiso   1.00
C706   C     0.66392   0.24247   0.02456   0.00000  Uiso   1.00
C707   C     0.71855   0.24947   0.05460   0.00000  Uiso   1.00
C708   C     0.59000   0.11285   0.96064   0.00000  Uiso   1.00
C709   C     0.57926   0.10784   0.90034   0.00000  Uiso   1.00
C710   C     0.59517   0.05328   0.87357   0.00000  Uiso   1.00
C711   C     0.53476   0.14599   0.04833   0.00000  Uiso   1.00
C712   C     0.47757   0.16884   0.06174   0.00000  Uiso   1.00
C713   C     0.44696   0.14217   0.10879   0.00000  Uiso   1.00
H714   H     0.64348   0.04318   0.08366   0.00000  Uiso   1.00
H715   H     0.73620   0.10812   0.11568   0.00000  Uiso   1.00
H716   H     0.65155   0.97352   0.99148   0.00000  Uiso   1.00
H717   H     0.54987   0.03451   0.15286   0.00000  Uiso   1.00
H718   H     0.82767   0.20119   0.13687   0.00000  Uiso   1.00
H719   H     0.64915   0.91736   0.87499   0.00000  Uiso   1.00
H720   H     0.43475   0.04596   0.21529   0.00000  Uiso   1.00
H721   H     0.55607   0.20558   0.97349   0.00000  Uiso   1.00
H722   H     0.64400   0.27944   0.99947   0.00000  Uiso   1.00
H723   H     0.55935   0.14483   0.87526   0.00000  Uiso   1.00
H724   H     0.45768   0.20582   0.03665   0.00000  Uiso   1.00
H725   H     0.75284   0.34024   0.04254   0.00000  Uiso   1.00
H726   H     0.57432   0.05640   0.78066   0.00000  Uiso   1.00
H727   H     0.35992   0.18501   0.12096   0.00000  Uiso   1.00
O728   O     0.84968   0.31637   0.10876   0.00000  Uiso   1.00
O729   O     0.61546   0.94398   0.76519   0.00000  Uiso   1.00
O730   O     0.33418   0.11271   0.21166   0.00000  Uiso   1.00
N731   N     0.79798   0.22378   0.11111   0.00000  Uiso   1.00
N732   N     0.63109   0.95842   0.86627   0.00000  Uiso   1.00
N733   N     0.43064   0.07865   0.18441   0.00000  Uiso   1.00
N734   N     0.75772   0.29861   0.06035   0.00000  Uiso   1.00
N735   N     0.59083   0.03324   0.81551   0.00000  Uiso   1.00
N736   N     0.39037   0.15347   0.13366   0.00000  Uiso   1.00
