data_job_04789
_audit_creation_date              2018-12-19
_audit_creation_method            'Materials Studio'
_symmetry_space_group_name_H-M    'P1'
_symmetry_Int_Tables_number       1
_symmetry_cell_setting            triclinic
loop_
_symmetry_equiv_pos_as_xyz
  x,y,z
_cell_length_a                    28.0470
_cell_length_b                    28.0470
_cell_length_c                    14.4739
_cell_angle_alpha                 90.0000
_cell_angle_beta                  90.0000
_cell_angle_gamma                 90.0000
loop_
_atom_site_label
_atom_site_type_symbol
_atom_site_fract_x
_atom_site_fract_y
_atom_site_fract_z
_atom_site_U_iso_or_equiv
_atom_site_adp_type
_atom_site_occupancy
C1     C     0.64973   0.18061   0.44948   0.00000  Uiso   1.00
C2     C     0.65765   0.23371   0.46619   0.00000  Uiso   1.00
C3     C     0.69697   0.25381   0.50943   0.00000  Uiso   1.00
C4     C     0.69752   0.30311   0.51805   0.00000  Uiso   1.00
C5     C     0.71550   0.38127   0.54913   0.00000  Uiso   1.00
C6     C     0.60203   0.16859   0.49436   0.00000  Uiso   1.00
C7     C     0.59459   0.13393   0.56127   0.00000  Uiso   1.00
C8     C     0.54830   0.12841   0.59357   0.00000  Uiso   1.00
C9     C     0.47993   0.10545   0.66833   0.00000  Uiso   1.00
C10    C     0.64224   0.17504   0.34569   0.00000  Uiso   1.00
C11    C     0.66861   0.14581   0.28760   0.00000  Uiso   1.00
C12    C     0.65618   0.14571   0.19475   0.00000  Uiso   1.00
C13    C     0.65025   0.13277   0.03867   0.00000  Uiso   1.00
C14    C     0.58077   0.23242   0.38788   0.00000  Uiso   1.00
C15    C     0.62019   0.26185   0.43274   0.00000  Uiso   1.00
C16    C     0.62067   0.31113   0.44128   0.00000  Uiso   1.00
C17    C     0.65999   0.33130   0.48452   0.00000  Uiso   1.00
C18    C     0.56457   0.19673   0.46090   0.00000  Uiso   1.00
C19    C     0.51829   0.19126   0.49311   0.00000  Uiso   1.00
C20    C     0.51078   0.15661   0.56006   0.00000  Uiso   1.00
C21    C     0.60479   0.20318   0.31223   0.00000  Uiso   1.00
C22    C     0.59231   0.20313   0.21945   0.00000  Uiso   1.00
C23    C     0.61865   0.17390   0.16123   0.00000  Uiso   1.00
H24    H     0.67889   0.15870   0.47553   0.00000  Uiso   1.00
H25    H     0.72595   0.23202   0.53533   0.00000  Uiso   1.00
H26    H     0.62358   0.11216   0.58714   0.00000  Uiso   1.00
H27    H     0.69759   0.12403   0.31352   0.00000  Uiso   1.00
H28    H     0.76160   0.32571   0.58689   0.00000  Uiso   1.00
H29    H     0.54574   0.07297   0.69612   0.00000  Uiso   1.00
H30    H     0.70181   0.09801   0.11914   0.00000  Uiso   1.00
H31    H     0.55160   0.25433   0.36183   0.00000  Uiso   1.00
H32    H     0.59168   0.33290   0.41538   0.00000  Uiso   1.00
H33    H     0.48931   0.21304   0.46720   0.00000  Uiso   1.00
H34    H     0.56332   0.22491   0.19358   0.00000  Uiso   1.00
H35    H     0.65262   0.40759   0.48954   0.00000  Uiso   1.00
H36    H     0.43676   0.15485   0.59877   0.00000  Uiso   1.00
H37    H     0.59283   0.17989   0.02179   0.00000  Uiso   1.00
O38    O     0.73577   0.41660   0.57552   0.00000  Uiso   1.00
O39    O     0.45257   0.08502   0.71881   0.00000  Uiso   1.00
O40    O     0.65733   0.11787   0.96183   0.00000  Uiso   1.00
N41    N     0.73046   0.33420   0.55661   0.00000  Uiso   1.00
N42    N     0.52864   0.09791   0.65875   0.00000  Uiso   1.00
N43    N     0.67455   0.12131   0.11932   0.00000  Uiso   1.00
N44    N     0.67182   0.37825   0.50423   0.00000  Uiso   1.00
N45    N     0.47000   0.14197   0.60637   0.00000  Uiso   1.00
N46    N     0.61590   0.16536   0.06694   0.00000  Uiso   1.00
C47    C     0.14973   0.68061   0.94948   0.00000  Uiso   1.00
C48    C     0.15765   0.73371   0.96619   0.00000  Uiso   1.00
C49    C     0.19697   0.75381   0.00943   0.00000  Uiso   1.00
C50    C     0.19752   0.80311   0.01805   0.00000  Uiso   1.00
C51    C     0.21550   0.88127   0.04913   0.00000  Uiso   1.00
C52    C     0.10203   0.66859   0.99436   0.00000  Uiso   1.00
C53    C     0.09459   0.63393   0.06127   0.00000  Uiso   1.00
C54    C     0.04830   0.62841   0.09357   0.00000  Uiso   1.00
C55    C     0.97993   0.60545   0.16833   0.00000  Uiso   1.00
C56    C     0.14224   0.67504   0.84569   0.00000  Uiso   1.00
C57    C     0.16861   0.64581   0.78760   0.00000  Uiso   1.00
C58    C     0.15618   0.64571   0.69475   0.00000  Uiso   1.00
C59    C     0.15025   0.63277   0.53867   0.00000  Uiso   1.00
C60    C     0.08077   0.73242   0.88788   0.00000  Uiso   1.00
C61    C     0.12019   0.76185   0.93274   0.00000  Uiso   1.00
C62    C     0.12067   0.81113   0.94128   0.00000  Uiso   1.00
C63    C     0.15999   0.83130   0.98452   0.00000  Uiso   1.00
C64    C     0.06457   0.69673   0.96090   0.00000  Uiso   1.00
C65    C     0.01829   0.69126   0.99311   0.00000  Uiso   1.00
C66    C     0.01078   0.65661   0.06006   0.00000  Uiso   1.00
C67    C     0.10479   0.70318   0.81223   0.00000  Uiso   1.00
C68    C     0.09231   0.70313   0.71945   0.00000  Uiso   1.00
C69    C     0.11865   0.67390   0.66123   0.00000  Uiso   1.00
H70    H     0.17889   0.65870   0.97553   0.00000  Uiso   1.00
H71    H     0.22595   0.73202   0.03533   0.00000  Uiso   1.00
H72    H     0.12358   0.61216   0.08714   0.00000  Uiso   1.00
H73    H     0.19759   0.62403   0.81352   0.00000  Uiso   1.00
H74    H     0.26160   0.82571   0.08689   0.00000  Uiso   1.00
H75    H     0.04574   0.57297   0.19612   0.00000  Uiso   1.00
H76    H     0.20181   0.59801   0.61914   0.00000  Uiso   1.00
H77    H     0.05160   0.75433   0.86183   0.00000  Uiso   1.00
H78    H     0.09168   0.83290   0.91538   0.00000  Uiso   1.00
H79    H     0.98931   0.71304   0.96720   0.00000  Uiso   1.00
H80    H     0.06332   0.72491   0.69358   0.00000  Uiso   1.00
H81    H     0.15262   0.90759   0.98954   0.00000  Uiso   1.00
H82    H     0.93676   0.65485   0.09877   0.00000  Uiso   1.00
H83    H     0.09283   0.67989   0.52179   0.00000  Uiso   1.00
O84    O     0.23577   0.91660   0.07552   0.00000  Uiso   1.00
O85    O     0.95257   0.58502   0.21881   0.00000  Uiso   1.00
O86    O     0.15733   0.61787   0.46183   0.00000  Uiso   1.00
N87    N     0.23046   0.83420   0.05661   0.00000  Uiso   1.00
N88    N     0.02864   0.59791   0.15875   0.00000  Uiso   1.00
N89    N     0.17455   0.62131   0.61932   0.00000  Uiso   1.00
N90    N     0.17182   0.87825   0.00423   0.00000  Uiso   1.00
N91    N     0.97000   0.64197   0.10637   0.00000  Uiso   1.00
N92    N     0.11590   0.66536   0.56694   0.00000  Uiso   1.00
C93    C     0.35027   0.81939   0.44948   0.00000  Uiso   1.00
C94    C     0.34235   0.76629   0.46619   0.00000  Uiso   1.00
C95    C     0.30303   0.74619   0.50943   0.00000  Uiso   1.00
C96    C     0.30248   0.69689   0.51805   0.00000  Uiso   1.00
C97    C     0.28450   0.61873   0.54913   0.00000  Uiso   1.00
C98    C     0.39797   0.83141   0.49436   0.00000  Uiso   1.00
C99    C     0.40541   0.86607   0.56127   0.00000  Uiso   1.00
C100   C     0.45170   0.87159   0.59357   0.00000  Uiso   1.00
C101   C     0.52007   0.89455   0.66833   0.00000  Uiso   1.00
C102   C     0.35776   0.82496   0.34569   0.00000  Uiso   1.00
C103   C     0.33139   0.85419   0.28760   0.00000  Uiso   1.00
C104   C     0.34382   0.85429   0.19475   0.00000  Uiso   1.00
C105   C     0.34975   0.86723   0.03867   0.00000  Uiso   1.00
C106   C     0.41923   0.76758   0.38788   0.00000  Uiso   1.00
C107   C     0.37981   0.73815   0.43274   0.00000  Uiso   1.00
C108   C     0.37933   0.68887   0.44128   0.00000  Uiso   1.00
C109   C     0.34001   0.66870   0.48452   0.00000  Uiso   1.00
C110   C     0.43543   0.80327   0.46090   0.00000  Uiso   1.00
C111   C     0.48171   0.80874   0.49311   0.00000  Uiso   1.00
C112   C     0.48922   0.84339   0.56006   0.00000  Uiso   1.00
C113   C     0.39521   0.79682   0.31223   0.00000  Uiso   1.00
C114   C     0.40769   0.79687   0.21945   0.00000  Uiso   1.00
C115   C     0.38135   0.82610   0.16123   0.00000  Uiso   1.00
H116   H     0.32111   0.84130   0.47553   0.00000  Uiso   1.00
H117   H     0.27405   0.76798   0.53533   0.00000  Uiso   1.00
H118   H     0.37642   0.88784   0.58714   0.00000  Uiso   1.00
H119   H     0.30241   0.87597   0.31352   0.00000  Uiso   1.00
H120   H     0.23840   0.67429   0.58689   0.00000  Uiso   1.00
H121   H     0.45426   0.92703   0.69612   0.00000  Uiso   1.00
H122   H     0.29819   0.90199   0.11914   0.00000  Uiso   1.00
H123   H     0.44840   0.74567   0.36183   0.00000  Uiso   1.00
H124   H     0.40832   0.66710   0.41538   0.00000  Uiso   1.00
H125   H     0.51069   0.78696   0.46720   0.00000  Uiso   1.00
H126   H     0.43668   0.77509   0.19358   0.00000  Uiso   1.00
H127   H     0.34738   0.59241   0.48954   0.00000  Uiso   1.00
H128   H     0.56324   0.84515   0.59877   0.00000  Uiso   1.00
H129   H     0.40717   0.82011   0.02179   0.00000  Uiso   1.00
O130   O     0.26423   0.58340   0.57552   0.00000  Uiso   1.00
O131   O     0.54743   0.91498   0.71881   0.00000  Uiso   1.00
O132   O     0.34267   0.88213   0.96183   0.00000  Uiso   1.00
N133   N     0.26954   0.66580   0.55661   0.00000  Uiso   1.00
N134   N     0.47136   0.90209   0.65875   0.00000  Uiso   1.00
N135   N     0.32545   0.87869   0.11932   0.00000  Uiso   1.00
N136   N     0.32818   0.62175   0.50423   0.00000  Uiso   1.00
N137   N     0.53000   0.85803   0.60637   0.00000  Uiso   1.00
N138   N     0.38410   0.83464   0.06694   0.00000  Uiso   1.00
C139   C     0.85027   0.31939   0.94948   0.00000  Uiso   1.00
C140   C     0.84235   0.26629   0.96619   0.00000  Uiso   1.00
C141   C     0.80303   0.24619   0.00943   0.00000  Uiso   1.00
C142   C     0.80248   0.19689   0.01805   0.00000  Uiso   1.00
C143   C     0.78450   0.11873   0.04913   0.00000  Uiso   1.00
C144   C     0.89797   0.33141   0.99436   0.00000  Uiso   1.00
C145   C     0.90541   0.36607   0.06127   0.00000  Uiso   1.00
C146   C     0.95170   0.37159   0.09357   0.00000  Uiso   1.00
C147   C     0.02007   0.39455   0.16833   0.00000  Uiso   1.00
C148   C     0.85776   0.32496   0.84569   0.00000  Uiso   1.00
C149   C     0.83139   0.35419   0.78760   0.00000  Uiso   1.00
C150   C     0.84382   0.35429   0.69475   0.00000  Uiso   1.00
C151   C     0.84975   0.36723   0.53867   0.00000  Uiso   1.00
C152   C     0.91923   0.26758   0.88788   0.00000  Uiso   1.00
C153   C     0.87981   0.23815   0.93274   0.00000  Uiso   1.00
C154   C     0.87933   0.18887   0.94128   0.00000  Uiso   1.00
C155   C     0.84001   0.16870   0.98452   0.00000  Uiso   1.00
C156   C     0.93543   0.30327   0.96090   0.00000  Uiso   1.00
C157   C     0.98171   0.30874   0.99311   0.00000  Uiso   1.00
C158   C     0.98922   0.34339   0.06006   0.00000  Uiso   1.00
C159   C     0.89521   0.29682   0.81223   0.00000  Uiso   1.00
C160   C     0.90769   0.29687   0.71945   0.00000  Uiso   1.00
C161   C     0.88135   0.32610   0.66123   0.00000  Uiso   1.00
H162   H     0.82111   0.34130   0.97553   0.00000  Uiso   1.00
H163   H     0.77405   0.26798   0.03533   0.00000  Uiso   1.00
H164   H     0.87642   0.38784   0.08714   0.00000  Uiso   1.00
H165   H     0.80241   0.37597   0.81352   0.00000  Uiso   1.00
H166   H     0.73840   0.17429   0.08689   0.00000  Uiso   1.00
H167   H     0.95426   0.42703   0.19612   0.00000  Uiso   1.00
H168   H     0.79819   0.40199   0.61914   0.00000  Uiso   1.00
H169   H     0.94840   0.24567   0.86183   0.00000  Uiso   1.00
H170   H     0.90832   0.16710   0.91538   0.00000  Uiso   1.00
H171   H     0.01069   0.28696   0.96720   0.00000  Uiso   1.00
H172   H     0.93668   0.27509   0.69358   0.00000  Uiso   1.00
H173   H     0.84738   0.09241   0.98954   0.00000  Uiso   1.00
H174   H     0.06324   0.34515   0.09877   0.00000  Uiso   1.00
H175   H     0.90717   0.32011   0.52179   0.00000  Uiso   1.00
O176   O     0.76423   0.08340   0.07552   0.00000  Uiso   1.00
O177   O     0.04743   0.41498   0.21881   0.00000  Uiso   1.00
O178   O     0.84267   0.38213   0.46183   0.00000  Uiso   1.00
N179   N     0.76954   0.16580   0.05661   0.00000  Uiso   1.00
N180   N     0.97136   0.40209   0.15875   0.00000  Uiso   1.00
N181   N     0.82545   0.37869   0.61932   0.00000  Uiso   1.00
N182   N     0.82818   0.12175   0.00423   0.00000  Uiso   1.00
N183   N     0.03000   0.35803   0.10637   0.00000  Uiso   1.00
N184   N     0.88410   0.33464   0.56694   0.00000  Uiso   1.00
C185   C     0.18061   0.35027   0.55052   0.00000  Uiso   1.00
C186   C     0.23371   0.34235   0.53381   0.00000  Uiso   1.00
C187   C     0.25381   0.30303   0.49057   0.00000  Uiso   1.00
C188   C     0.30311   0.30248   0.48195   0.00000  Uiso   1.00
C189   C     0.38127   0.28450   0.45087   0.00000  Uiso   1.00
C190   C     0.16859   0.39797   0.50564   0.00000  Uiso   1.00
C191   C     0.13393   0.40541   0.43873   0.00000  Uiso   1.00
C192   C     0.12841   0.45170   0.40643   0.00000  Uiso   1.00
C193   C     0.10545   0.52007   0.33167   0.00000  Uiso   1.00
C194   C     0.17504   0.35776   0.65431   0.00000  Uiso   1.00
C195   C     0.14581   0.33139   0.71240   0.00000  Uiso   1.00
C196   C     0.14571   0.34382   0.80525   0.00000  Uiso   1.00
C197   C     0.13277   0.34975   0.96133   0.00000  Uiso   1.00
C198   C     0.23242   0.41923   0.61212   0.00000  Uiso   1.00
C199   C     0.26185   0.37981   0.56726   0.00000  Uiso   1.00
C200   C     0.31113   0.37933   0.55872   0.00000  Uiso   1.00
C201   C     0.33130   0.34001   0.51548   0.00000  Uiso   1.00
C202   C     0.19673   0.43543   0.53910   0.00000  Uiso   1.00
C203   C     0.19126   0.48171   0.50689   0.00000  Uiso   1.00
C204   C     0.15661   0.48922   0.43994   0.00000  Uiso   1.00
C205   C     0.20318   0.39521   0.68777   0.00000  Uiso   1.00
C206   C     0.20313   0.40769   0.78055   0.00000  Uiso   1.00
C207   C     0.17390   0.38135   0.83877   0.00000  Uiso   1.00
H208   H     0.15870   0.32111   0.52447   0.00000  Uiso   1.00
H209   H     0.23202   0.27405   0.46467   0.00000  Uiso   1.00
H210   H     0.11216   0.37642   0.41286   0.00000  Uiso   1.00
H211   H     0.12403   0.30241   0.68648   0.00000  Uiso   1.00
H212   H     0.32571   0.23840   0.41311   0.00000  Uiso   1.00
H213   H     0.07297   0.45426   0.30388   0.00000  Uiso   1.00
H214   H     0.09801   0.29819   0.88086   0.00000  Uiso   1.00
H215   H     0.25433   0.44840   0.63817   0.00000  Uiso   1.00
H216   H     0.33290   0.40832   0.58462   0.00000  Uiso   1.00
H217   H     0.21304   0.51069   0.53280   0.00000  Uiso   1.00
H218   H     0.22491   0.43668   0.80642   0.00000  Uiso   1.00
H219   H     0.40759   0.34738   0.51046   0.00000  Uiso   1.00
H220   H     0.15485   0.56324   0.40123   0.00000  Uiso   1.00
H221   H     0.17989   0.40717   0.97821   0.00000  Uiso   1.00
O222   O     0.41660   0.26423   0.42448   0.00000  Uiso   1.00
O223   O     0.08502   0.54743   0.28119   0.00000  Uiso   1.00
O224   O     0.11787   0.34267   0.03817   0.00000  Uiso   1.00
N225   N     0.33420   0.26954   0.44339   0.00000  Uiso   1.00
N226   N     0.09791   0.47136   0.34125   0.00000  Uiso   1.00
N227   N     0.12131   0.32545   0.88068   0.00000  Uiso   1.00
N228   N     0.37825   0.32818   0.49577   0.00000  Uiso   1.00
N229   N     0.14197   0.53000   0.39363   0.00000  Uiso   1.00
N230   N     0.16536   0.38410   0.93306   0.00000  Uiso   1.00
C231   C     0.68061   0.85027   0.05052   0.00000  Uiso   1.00
C232   C     0.73371   0.84235   0.03381   0.00000  Uiso   1.00
C233   C     0.75381   0.80303   0.99057   0.00000  Uiso   1.00
C234   C     0.80311   0.80248   0.98195   0.00000  Uiso   1.00
C235   C     0.88127   0.78450   0.95087   0.00000  Uiso   1.00
C236   C     0.66859   0.89797   0.00564   0.00000  Uiso   1.00
C237   C     0.63393   0.90541   0.93873   0.00000  Uiso   1.00
C238   C     0.62841   0.95170   0.90643   0.00000  Uiso   1.00
C239   C     0.60545   0.02007   0.83167   0.00000  Uiso   1.00
C240   C     0.67504   0.85776   0.15431   0.00000  Uiso   1.00
C241   C     0.64581   0.83139   0.21240   0.00000  Uiso   1.00
C242   C     0.64571   0.84382   0.30525   0.00000  Uiso   1.00
C243   C     0.63277   0.84975   0.46133   0.00000  Uiso   1.00
C244   C     0.73242   0.91923   0.11212   0.00000  Uiso   1.00
C245   C     0.76185   0.87981   0.06726   0.00000  Uiso   1.00
C246   C     0.81113   0.87933   0.05872   0.00000  Uiso   1.00
C247   C     0.83130   0.84001   0.01548   0.00000  Uiso   1.00
C248   C     0.69673   0.93543   0.03910   0.00000  Uiso   1.00
C249   C     0.69126   0.98171   0.00689   0.00000  Uiso   1.00
C250   C     0.65661   0.98922   0.93994   0.00000  Uiso   1.00
C251   C     0.70318   0.89521   0.18777   0.00000  Uiso   1.00
C252   C     0.70313   0.90769   0.28055   0.00000  Uiso   1.00
C253   C     0.67390   0.88135   0.33877   0.00000  Uiso   1.00
H254   H     0.65870   0.82111   0.02447   0.00000  Uiso   1.00
H255   H     0.73202   0.77405   0.96467   0.00000  Uiso   1.00
H256   H     0.61216   0.87642   0.91286   0.00000  Uiso   1.00
H257   H     0.62403   0.80241   0.18648   0.00000  Uiso   1.00
H258   H     0.82571   0.73840   0.91311   0.00000  Uiso   1.00
H259   H     0.57297   0.95426   0.80388   0.00000  Uiso   1.00
H260   H     0.59801   0.79819   0.38086   0.00000  Uiso   1.00
H261   H     0.75433   0.94840   0.13817   0.00000  Uiso   1.00
H262   H     0.83290   0.90832   0.08462   0.00000  Uiso   1.00
H263   H     0.71304   0.01069   0.03280   0.00000  Uiso   1.00
H264   H     0.72491   0.93668   0.30642   0.00000  Uiso   1.00
H265   H     0.90759   0.84738   0.01046   0.00000  Uiso   1.00
H266   H     0.65485   0.06324   0.90123   0.00000  Uiso   1.00
H267   H     0.67989   0.90717   0.47821   0.00000  Uiso   1.00
O268   O     0.91660   0.76423   0.92448   0.00000  Uiso   1.00
O269   O     0.58502   0.04743   0.78119   0.00000  Uiso   1.00
O270   O     0.61787   0.84267   0.53817   0.00000  Uiso   1.00
N271   N     0.83420   0.76954   0.94339   0.00000  Uiso   1.00
N272   N     0.59791   0.97136   0.84125   0.00000  Uiso   1.00
N273   N     0.62131   0.82545   0.38068   0.00000  Uiso   1.00
N274   N     0.87825   0.82818   0.99577   0.00000  Uiso   1.00
N275   N     0.64197   0.03000   0.89363   0.00000  Uiso   1.00
N276   N     0.66536   0.88410   0.43306   0.00000  Uiso   1.00
C277   C     0.81939   0.64973   0.55052   0.00000  Uiso   1.00
C278   C     0.76629   0.65765   0.53381   0.00000  Uiso   1.00
C279   C     0.74619   0.69697   0.49057   0.00000  Uiso   1.00
C280   C     0.69689   0.69752   0.48195   0.00000  Uiso   1.00
C281   C     0.61873   0.71550   0.45087   0.00000  Uiso   1.00
C282   C     0.83141   0.60203   0.50564   0.00000  Uiso   1.00
C283   C     0.86607   0.59459   0.43873   0.00000  Uiso   1.00
C284   C     0.87159   0.54830   0.40643   0.00000  Uiso   1.00
C285   C     0.89455   0.47993   0.33167   0.00000  Uiso   1.00
C286   C     0.82496   0.64224   0.65431   0.00000  Uiso   1.00
C287   C     0.85419   0.66861   0.71240   0.00000  Uiso   1.00
C288   C     0.85429   0.65618   0.80525   0.00000  Uiso   1.00
C289   C     0.86723   0.65025   0.96133   0.00000  Uiso   1.00
C290   C     0.76758   0.58077   0.61212   0.00000  Uiso   1.00
C291   C     0.73815   0.62019   0.56726   0.00000  Uiso   1.00
C292   C     0.68887   0.62067   0.55872   0.00000  Uiso   1.00
C293   C     0.66870   0.65999   0.51548   0.00000  Uiso   1.00
C294   C     0.80327   0.56457   0.53910   0.00000  Uiso   1.00
C295   C     0.80874   0.51829   0.50689   0.00000  Uiso   1.00
C296   C     0.84339   0.51078   0.43994   0.00000  Uiso   1.00
C297   C     0.79682   0.60479   0.68777   0.00000  Uiso   1.00
C298   C     0.79687   0.59231   0.78055   0.00000  Uiso   1.00
C299   C     0.82610   0.61865   0.83877   0.00000  Uiso   1.00
H300   H     0.84130   0.67889   0.52447   0.00000  Uiso   1.00
H301   H     0.76798   0.72595   0.46467   0.00000  Uiso   1.00
H302   H     0.88784   0.62358   0.41286   0.00000  Uiso   1.00
H303   H     0.87597   0.69759   0.68648   0.00000  Uiso   1.00
H304   H     0.67429   0.76160   0.41311   0.00000  Uiso   1.00
H305   H     0.92703   0.54574   0.30388   0.00000  Uiso   1.00
H306   H     0.90199   0.70181   0.88086   0.00000  Uiso   1.00
H307   H     0.74567   0.55160   0.63817   0.00000  Uiso   1.00
H308   H     0.66710   0.59168   0.58462   0.00000  Uiso   1.00
H309   H     0.78696   0.48931   0.53280   0.00000  Uiso   1.00
H310   H     0.77509   0.56332   0.80642   0.00000  Uiso   1.00
H311   H     0.59241   0.65262   0.51046   0.00000  Uiso   1.00
H312   H     0.84515   0.43676   0.40123   0.00000  Uiso   1.00
H313   H     0.82011   0.59283   0.97821   0.00000  Uiso   1.00
O314   O     0.58340   0.73577   0.42448   0.00000  Uiso   1.00
O315   O     0.91498   0.45257   0.28119   0.00000  Uiso   1.00
O316   O     0.88213   0.65733   0.03817   0.00000  Uiso   1.00
N317   N     0.66580   0.73046   0.44339   0.00000  Uiso   1.00
N318   N     0.90209   0.52864   0.34125   0.00000  Uiso   1.00
N319   N     0.87869   0.67455   0.88068   0.00000  Uiso   1.00
N320   N     0.62175   0.67182   0.49577   0.00000  Uiso   1.00
N321   N     0.85803   0.47000   0.39363   0.00000  Uiso   1.00
N322   N     0.83464   0.61590   0.93306   0.00000  Uiso   1.00
C323   C     0.31939   0.14973   0.05052   0.00000  Uiso   1.00
C324   C     0.26629   0.15765   0.03381   0.00000  Uiso   1.00
C325   C     0.24619   0.19697   0.99057   0.00000  Uiso   1.00
C326   C     0.19689   0.19752   0.98195   0.00000  Uiso   1.00
C327   C     0.11873   0.21550   0.95087   0.00000  Uiso   1.00
C328   C     0.33141   0.10203   0.00564   0.00000  Uiso   1.00
C329   C     0.36607   0.09459   0.93873   0.00000  Uiso   1.00
C330   C     0.37159   0.04830   0.90643   0.00000  Uiso   1.00
C331   C     0.39455   0.97993   0.83167   0.00000  Uiso   1.00
C332   C     0.32496   0.14224   0.15431   0.00000  Uiso   1.00
C333   C     0.35419   0.16861   0.21240   0.00000  Uiso   1.00
C334   C     0.35429   0.15618   0.30525   0.00000  Uiso   1.00
C335   C     0.36723   0.15025   0.46133   0.00000  Uiso   1.00
C336   C     0.26758   0.08077   0.11212   0.00000  Uiso   1.00
C337   C     0.23815   0.12019   0.06726   0.00000  Uiso   1.00
C338   C     0.18887   0.12067   0.05872   0.00000  Uiso   1.00
C339   C     0.16870   0.15999   0.01548   0.00000  Uiso   1.00
C340   C     0.30327   0.06457   0.03910   0.00000  Uiso   1.00
C341   C     0.30874   0.01829   0.00689   0.00000  Uiso   1.00
C342   C     0.34339   0.01078   0.93994   0.00000  Uiso   1.00
C343   C     0.29682   0.10479   0.18777   0.00000  Uiso   1.00
C344   C     0.29687   0.09231   0.28055   0.00000  Uiso   1.00
C345   C     0.32610   0.11865   0.33877   0.00000  Uiso   1.00
H346   H     0.34130   0.17889   0.02447   0.00000  Uiso   1.00
H347   H     0.26798   0.22595   0.96467   0.00000  Uiso   1.00
H348   H     0.38784   0.12358   0.91286   0.00000  Uiso   1.00
H349   H     0.37597   0.19759   0.18648   0.00000  Uiso   1.00
H350   H     0.17429   0.26160   0.91311   0.00000  Uiso   1.00
H351   H     0.42703   0.04574   0.80388   0.00000  Uiso   1.00
H352   H     0.40199   0.20181   0.38086   0.00000  Uiso   1.00
H353   H     0.24567   0.05160   0.13817   0.00000  Uiso   1.00
H354   H     0.16710   0.09168   0.08462   0.00000  Uiso   1.00
H355   H     0.28696   0.98931   0.03280   0.00000  Uiso   1.00
H356   H     0.27509   0.06332   0.30642   0.00000  Uiso   1.00
H357   H     0.09241   0.15262   0.01046   0.00000  Uiso   1.00
H358   H     0.34515   0.93676   0.90123   0.00000  Uiso   1.00
H359   H     0.32011   0.09283   0.47821   0.00000  Uiso   1.00
O360   O     0.08340   0.23577   0.92448   0.00000  Uiso   1.00
O361   O     0.41498   0.95257   0.78119   0.00000  Uiso   1.00
O362   O     0.38213   0.15733   0.53817   0.00000  Uiso   1.00
N363   N     0.16580   0.23046   0.94339   0.00000  Uiso   1.00
N364   N     0.40209   0.02864   0.84125   0.00000  Uiso   1.00
N365   N     0.37869   0.17455   0.38068   0.00000  Uiso   1.00
N366   N     0.12175   0.17182   0.99577   0.00000  Uiso   1.00
N367   N     0.35803   0.97000   0.89363   0.00000  Uiso   1.00
N368   N     0.33464   0.11590   0.43306   0.00000  Uiso   1.00
C369   C     0.85027   0.18061   0.30052   0.00000  Uiso   1.00
C370   C     0.84235   0.23371   0.28381   0.00000  Uiso   1.00
C371   C     0.80303   0.25381   0.24057   0.00000  Uiso   1.00
C372   C     0.80248   0.30311   0.23195   0.00000  Uiso   1.00
C373   C     0.78450   0.38127   0.20087   0.00000  Uiso   1.00
C374   C     0.89797   0.16859   0.25564   0.00000  Uiso   1.00
C375   C     0.90541   0.13393   0.18873   0.00000  Uiso   1.00
C376   C     0.95170   0.12841   0.15643   0.00000  Uiso   1.00
C377   C     0.02007   0.10545   0.08167   0.00000  Uiso   1.00
C378   C     0.85776   0.17504   0.40431   0.00000  Uiso   1.00
C379   C     0.83139   0.14581   0.46240   0.00000  Uiso   1.00
C380   C     0.84382   0.14571   0.55525   0.00000  Uiso   1.00
C381   C     0.84975   0.13277   0.71133   0.00000  Uiso   1.00
C382   C     0.91923   0.23242   0.36212   0.00000  Uiso   1.00
C383   C     0.87981   0.26185   0.31726   0.00000  Uiso   1.00
C384   C     0.87933   0.31113   0.30872   0.00000  Uiso   1.00
C385   C     0.84001   0.33130   0.26548   0.00000  Uiso   1.00
C386   C     0.93543   0.19673   0.28910   0.00000  Uiso   1.00
C387   C     0.98171   0.19126   0.25689   0.00000  Uiso   1.00
C388   C     0.98922   0.15661   0.18994   0.00000  Uiso   1.00
C389   C     0.89521   0.20318   0.43777   0.00000  Uiso   1.00
C390   C     0.90769   0.20313   0.53055   0.00000  Uiso   1.00
C391   C     0.88135   0.17390   0.58877   0.00000  Uiso   1.00
H392   H     0.82111   0.15870   0.27447   0.00000  Uiso   1.00
H393   H     0.77405   0.23202   0.21467   0.00000  Uiso   1.00
H394   H     0.87642   0.11216   0.16286   0.00000  Uiso   1.00
H395   H     0.80241   0.12403   0.43648   0.00000  Uiso   1.00
H396   H     0.73840   0.32571   0.16311   0.00000  Uiso   1.00
H397   H     0.95426   0.07297   0.05388   0.00000  Uiso   1.00
H398   H     0.79819   0.09801   0.63086   0.00000  Uiso   1.00
H399   H     0.94840   0.25433   0.38817   0.00000  Uiso   1.00
H400   H     0.90832   0.33290   0.33462   0.00000  Uiso   1.00
H401   H     0.01069   0.21304   0.28280   0.00000  Uiso   1.00
H402   H     0.93668   0.22491   0.55642   0.00000  Uiso   1.00
H403   H     0.84738   0.40759   0.26046   0.00000  Uiso   1.00
H404   H     0.06324   0.15485   0.15123   0.00000  Uiso   1.00
H405   H     0.90717   0.17989   0.72821   0.00000  Uiso   1.00
O406   O     0.76423   0.41660   0.17448   0.00000  Uiso   1.00
O407   O     0.04743   0.08502   0.03119   0.00000  Uiso   1.00
O408   O     0.84267   0.11787   0.78817   0.00000  Uiso   1.00
N409   N     0.76954   0.33420   0.19339   0.00000  Uiso   1.00
N410   N     0.97136   0.09791   0.09125   0.00000  Uiso   1.00
N411   N     0.82545   0.12131   0.63068   0.00000  Uiso   1.00
N412   N     0.82818   0.37825   0.24577   0.00000  Uiso   1.00
N413   N     0.03000   0.14197   0.14363   0.00000  Uiso   1.00
N414   N     0.88410   0.16536   0.68306   0.00000  Uiso   1.00
C415   C     0.35027   0.68061   0.80052   0.00000  Uiso   1.00
C416   C     0.34235   0.73371   0.78381   0.00000  Uiso   1.00
C417   C     0.30303   0.75381   0.74057   0.00000  Uiso   1.00
C418   C     0.30248   0.80311   0.73195   0.00000  Uiso   1.00
C419   C     0.28450   0.88127   0.70087   0.00000  Uiso   1.00
C420   C     0.39797   0.66859   0.75564   0.00000  Uiso   1.00
C421   C     0.40541   0.63393   0.68873   0.00000  Uiso   1.00
C422   C     0.45170   0.62841   0.65643   0.00000  Uiso   1.00
C423   C     0.52007   0.60545   0.58167   0.00000  Uiso   1.00
C424   C     0.35776   0.67504   0.90431   0.00000  Uiso   1.00
C425   C     0.33139   0.64581   0.96240   0.00000  Uiso   1.00
C426   C     0.34382   0.64571   0.05525   0.00000  Uiso   1.00
C427   C     0.34975   0.63277   0.21133   0.00000  Uiso   1.00
C428   C     0.41923   0.73242   0.86212   0.00000  Uiso   1.00
C429   C     0.37981   0.76185   0.81726   0.00000  Uiso   1.00
C430   C     0.37933   0.81113   0.80872   0.00000  Uiso   1.00
C431   C     0.34001   0.83130   0.76548   0.00000  Uiso   1.00
C432   C     0.43543   0.69673   0.78910   0.00000  Uiso   1.00
C433   C     0.48171   0.69126   0.75689   0.00000  Uiso   1.00
C434   C     0.48922   0.65661   0.68994   0.00000  Uiso   1.00
C435   C     0.39521   0.70318   0.93777   0.00000  Uiso   1.00
C436   C     0.40769   0.70313   0.03055   0.00000  Uiso   1.00
C437   C     0.38135   0.67390   0.08877   0.00000  Uiso   1.00
H438   H     0.32111   0.65870   0.77447   0.00000  Uiso   1.00
H439   H     0.27405   0.73202   0.71467   0.00000  Uiso   1.00
H440   H     0.37642   0.61216   0.66286   0.00000  Uiso   1.00
H441   H     0.30241   0.62403   0.93648   0.00000  Uiso   1.00
H442   H     0.23840   0.82571   0.66311   0.00000  Uiso   1.00
H443   H     0.45426   0.57297   0.55388   0.00000  Uiso   1.00
H444   H     0.29819   0.59801   0.13086   0.00000  Uiso   1.00
H445   H     0.44840   0.75433   0.88817   0.00000  Uiso   1.00
H446   H     0.40832   0.83290   0.83462   0.00000  Uiso   1.00
H447   H     0.51069   0.71304   0.78280   0.00000  Uiso   1.00
H448   H     0.43668   0.72491   0.05642   0.00000  Uiso   1.00
H449   H     0.34738   0.90759   0.76046   0.00000  Uiso   1.00
H450   H     0.56324   0.65485   0.65123   0.00000  Uiso   1.00
H451   H     0.40717   0.67989   0.22821   0.00000  Uiso   1.00
O452   O     0.26423   0.91660   0.67448   0.00000  Uiso   1.00
O453   O     0.54743   0.58502   0.53119   0.00000  Uiso   1.00
O454   O     0.34267   0.61787   0.28817   0.00000  Uiso   1.00
N455   N     0.26954   0.83420   0.69339   0.00000  Uiso   1.00
N456   N     0.47136   0.59791   0.59125   0.00000  Uiso   1.00
N457   N     0.32545   0.62131   0.13068   0.00000  Uiso   1.00
N458   N     0.32818   0.87825   0.74577   0.00000  Uiso   1.00
N459   N     0.53000   0.64197   0.64363   0.00000  Uiso   1.00
N460   N     0.38410   0.66536   0.18306   0.00000  Uiso   1.00
C461   C     0.14973   0.81939   0.30052   0.00000  Uiso   1.00
C462   C     0.15765   0.76629   0.28381   0.00000  Uiso   1.00
C463   C     0.19697   0.74619   0.24057   0.00000  Uiso   1.00
C464   C     0.19752   0.69689   0.23195   0.00000  Uiso   1.00
C465   C     0.21550   0.61873   0.20087   0.00000  Uiso   1.00
C466   C     0.10203   0.83141   0.25564   0.00000  Uiso   1.00
C467   C     0.09459   0.86607   0.18873   0.00000  Uiso   1.00
C468   C     0.04830   0.87159   0.15643   0.00000  Uiso   1.00
C469   C     0.97993   0.89455   0.08167   0.00000  Uiso   1.00
C470   C     0.14224   0.82496   0.40431   0.00000  Uiso   1.00
C471   C     0.16861   0.85419   0.46240   0.00000  Uiso   1.00
C472   C     0.15618   0.85429   0.55525   0.00000  Uiso   1.00
C473   C     0.15025   0.86723   0.71133   0.00000  Uiso   1.00
C474   C     0.08077   0.76758   0.36212   0.00000  Uiso   1.00
C475   C     0.12019   0.73815   0.31726   0.00000  Uiso   1.00
C476   C     0.12067   0.68887   0.30872   0.00000  Uiso   1.00
C477   C     0.15999   0.66870   0.26548   0.00000  Uiso   1.00
C478   C     0.06457   0.80327   0.28910   0.00000  Uiso   1.00
C479   C     0.01829   0.80874   0.25689   0.00000  Uiso   1.00
C480   C     0.01078   0.84339   0.18994   0.00000  Uiso   1.00
C481   C     0.10479   0.79682   0.43777   0.00000  Uiso   1.00
C482   C     0.09231   0.79687   0.53055   0.00000  Uiso   1.00
C483   C     0.11865   0.82610   0.58877   0.00000  Uiso   1.00
H484   H     0.17889   0.84130   0.27447   0.00000  Uiso   1.00
H485   H     0.22595   0.76798   0.21467   0.00000  Uiso   1.00
H486   H     0.12358   0.88784   0.16286   0.00000  Uiso   1.00
H487   H     0.19759   0.87597   0.43648   0.00000  Uiso   1.00
H488   H     0.26160   0.67429   0.16311   0.00000  Uiso   1.00
H489   H     0.04574   0.92703   0.05388   0.00000  Uiso   1.00
H490   H     0.20181   0.90199   0.63086   0.00000  Uiso   1.00
H491   H     0.05160   0.74567   0.38817   0.00000  Uiso   1.00
H492   H     0.09168   0.66710   0.33462   0.00000  Uiso   1.00
H493   H     0.98931   0.78696   0.28280   0.00000  Uiso   1.00
H494   H     0.06332   0.77509   0.55642   0.00000  Uiso   1.00
H495   H     0.15262   0.59241   0.26046   0.00000  Uiso   1.00
H496   H     0.93676   0.84515   0.15123   0.00000  Uiso   1.00
H497   H     0.09283   0.82011   0.72821   0.00000  Uiso   1.00
O498   O     0.23577   0.58340   0.17448   0.00000  Uiso   1.00
O499   O     0.95257   0.91498   0.03119   0.00000  Uiso   1.00
O500   O     0.15733   0.88213   0.78817   0.00000  Uiso   1.00
N501   N     0.23046   0.66580   0.19339   0.00000  Uiso   1.00
N502   N     0.02864   0.90209   0.09125   0.00000  Uiso   1.00
N503   N     0.17455   0.87869   0.63068   0.00000  Uiso   1.00
N504   N     0.17182   0.62175   0.24577   0.00000  Uiso   1.00
N505   N     0.97000   0.85803   0.14363   0.00000  Uiso   1.00
N506   N     0.11590   0.83464   0.68306   0.00000  Uiso   1.00
C507   C     0.64973   0.31939   0.80052   0.00000  Uiso   1.00
C508   C     0.65765   0.26629   0.78381   0.00000  Uiso   1.00
C509   C     0.69697   0.24619   0.74057   0.00000  Uiso   1.00
C510   C     0.69752   0.19689   0.73195   0.00000  Uiso   1.00
C511   C     0.71550   0.11873   0.70087   0.00000  Uiso   1.00
C512   C     0.60203   0.33141   0.75564   0.00000  Uiso   1.00
C513   C     0.59459   0.36607   0.68873   0.00000  Uiso   1.00
C514   C     0.54830   0.37159   0.65643   0.00000  Uiso   1.00
C515   C     0.47993   0.39455   0.58167   0.00000  Uiso   1.00
C516   C     0.64224   0.32496   0.90431   0.00000  Uiso   1.00
C517   C     0.66861   0.35419   0.96240   0.00000  Uiso   1.00
C518   C     0.65618   0.35429   0.05525   0.00000  Uiso   1.00
C519   C     0.65025   0.36723   0.21133   0.00000  Uiso   1.00
C520   C     0.58077   0.26758   0.86212   0.00000  Uiso   1.00
C521   C     0.62019   0.23815   0.81726   0.00000  Uiso   1.00
C522   C     0.62067   0.18887   0.80872   0.00000  Uiso   1.00
C523   C     0.65999   0.16870   0.76548   0.00000  Uiso   1.00
C524   C     0.56457   0.30327   0.78910   0.00000  Uiso   1.00
C525   C     0.51829   0.30874   0.75689   0.00000  Uiso   1.00
C526   C     0.51078   0.34339   0.68994   0.00000  Uiso   1.00
C527   C     0.60479   0.29682   0.93777   0.00000  Uiso   1.00
C528   C     0.59231   0.29687   0.03055   0.00000  Uiso   1.00
C529   C     0.61865   0.32610   0.08877   0.00000  Uiso   1.00
H530   H     0.67889   0.34130   0.77447   0.00000  Uiso   1.00
H531   H     0.72595   0.26798   0.71467   0.00000  Uiso   1.00
H532   H     0.62358   0.38784   0.66286   0.00000  Uiso   1.00
H533   H     0.69759   0.37597   0.93648   0.00000  Uiso   1.00
H534   H     0.76160   0.17429   0.66311   0.00000  Uiso   1.00
H535   H     0.54574   0.42703   0.55388   0.00000  Uiso   1.00
H536   H     0.70181   0.40199   0.13086   0.00000  Uiso   1.00
H537   H     0.55160   0.24567   0.88817   0.00000  Uiso   1.00
H538   H     0.59168   0.16710   0.83462   0.00000  Uiso   1.00
H539   H     0.48931   0.28696   0.78280   0.00000  Uiso   1.00
H540   H     0.56332   0.27509   0.05642   0.00000  Uiso   1.00
H541   H     0.65262   0.09241   0.76046   0.00000  Uiso   1.00
H542   H     0.43676   0.34515   0.65123   0.00000  Uiso   1.00
H543   H     0.59283   0.32011   0.22821   0.00000  Uiso   1.00
O544   O     0.73577   0.08340   0.67448   0.00000  Uiso   1.00
O545   O     0.45257   0.41498   0.53119   0.00000  Uiso   1.00
O546   O     0.65733   0.38213   0.28817   0.00000  Uiso   1.00
N547   N     0.73046   0.16580   0.69339   0.00000  Uiso   1.00
N548   N     0.52864   0.40209   0.59125   0.00000  Uiso   1.00
N549   N     0.67455   0.37869   0.13068   0.00000  Uiso   1.00
N550   N     0.67182   0.12175   0.74577   0.00000  Uiso   1.00
N551   N     0.47000   0.35803   0.64363   0.00000  Uiso   1.00
N552   N     0.61590   0.33464   0.18306   0.00000  Uiso   1.00
C553   C     0.31939   0.35027   0.19948   0.00000  Uiso   1.00
C554   C     0.26629   0.34235   0.21619   0.00000  Uiso   1.00
C555   C     0.24619   0.30303   0.25943   0.00000  Uiso   1.00
C556   C     0.19689   0.30248   0.26805   0.00000  Uiso   1.00
C557   C     0.11873   0.28450   0.29913   0.00000  Uiso   1.00
C558   C     0.33141   0.39797   0.24436   0.00000  Uiso   1.00
C559   C     0.36607   0.40541   0.31127   0.00000  Uiso   1.00
C560   C     0.37159   0.45170   0.34357   0.00000  Uiso   1.00
C561   C     0.39455   0.52007   0.41833   0.00000  Uiso   1.00
C562   C     0.32496   0.35776   0.09569   0.00000  Uiso   1.00
C563   C     0.35419   0.33139   0.03760   0.00000  Uiso   1.00
C564   C     0.35429   0.34382   0.94475   0.00000  Uiso   1.00
C565   C     0.36723   0.34975   0.78867   0.00000  Uiso   1.00
C566   C     0.26758   0.41923   0.13788   0.00000  Uiso   1.00
C567   C     0.23815   0.37981   0.18274   0.00000  Uiso   1.00
C568   C     0.18887   0.37933   0.19128   0.00000  Uiso   1.00
C569   C     0.16870   0.34001   0.23452   0.00000  Uiso   1.00
C570   C     0.30327   0.43543   0.21090   0.00000  Uiso   1.00
C571   C     0.30874   0.48171   0.24311   0.00000  Uiso   1.00
C572   C     0.34339   0.48922   0.31006   0.00000  Uiso   1.00
C573   C     0.29682   0.39521   0.06223   0.00000  Uiso   1.00
C574   C     0.29687   0.40769   0.96945   0.00000  Uiso   1.00
C575   C     0.32610   0.38135   0.91123   0.00000  Uiso   1.00
H576   H     0.34130   0.32111   0.22553   0.00000  Uiso   1.00
H577   H     0.26798   0.27405   0.28533   0.00000  Uiso   1.00
H578   H     0.38784   0.37642   0.33714   0.00000  Uiso   1.00
H579   H     0.37597   0.30241   0.06352   0.00000  Uiso   1.00
H580   H     0.17429   0.23840   0.33689   0.00000  Uiso   1.00
H581   H     0.42703   0.45426   0.44612   0.00000  Uiso   1.00
H582   H     0.40199   0.29819   0.86914   0.00000  Uiso   1.00
H583   H     0.24567   0.44840   0.11183   0.00000  Uiso   1.00
H584   H     0.16710   0.40832   0.16538   0.00000  Uiso   1.00
H585   H     0.28696   0.51069   0.21720   0.00000  Uiso   1.00
H586   H     0.27509   0.43668   0.94358   0.00000  Uiso   1.00
H587   H     0.09241   0.34738   0.23954   0.00000  Uiso   1.00
H588   H     0.34515   0.56324   0.34877   0.00000  Uiso   1.00
H589   H     0.32011   0.40717   0.77179   0.00000  Uiso   1.00
O590   O     0.08340   0.26423   0.32552   0.00000  Uiso   1.00
O591   O     0.41498   0.54743   0.46881   0.00000  Uiso   1.00
O592   O     0.38213   0.34267   0.71183   0.00000  Uiso   1.00
N593   N     0.16580   0.26954   0.30661   0.00000  Uiso   1.00
N594   N     0.40209   0.47136   0.40875   0.00000  Uiso   1.00
N595   N     0.37869   0.32545   0.86932   0.00000  Uiso   1.00
N596   N     0.12175   0.32818   0.25423   0.00000  Uiso   1.00
N597   N     0.35803   0.53000   0.35637   0.00000  Uiso   1.00
N598   N     0.33464   0.38410   0.81694   0.00000  Uiso   1.00
C599   C     0.81939   0.85027   0.69948   0.00000  Uiso   1.00
C600   C     0.76629   0.84235   0.71619   0.00000  Uiso   1.00
C601   C     0.74619   0.80303   0.75943   0.00000  Uiso   1.00
C602   C     0.69689   0.80248   0.76805   0.00000  Uiso   1.00
C603   C     0.61873   0.78450   0.79913   0.00000  Uiso   1.00
C604   C     0.83141   0.89797   0.74436   0.00000  Uiso   1.00
C605   C     0.86607   0.90541   0.81127   0.00000  Uiso   1.00
C606   C     0.87159   0.95170   0.84357   0.00000  Uiso   1.00
C607   C     0.89455   0.02007   0.91833   0.00000  Uiso   1.00
C608   C     0.82496   0.85776   0.59569   0.00000  Uiso   1.00
C609   C     0.85419   0.83139   0.53760   0.00000  Uiso   1.00
C610   C     0.85429   0.84382   0.44475   0.00000  Uiso   1.00
C611   C     0.86723   0.84975   0.28867   0.00000  Uiso   1.00
C612   C     0.76758   0.91923   0.63788   0.00000  Uiso   1.00
C613   C     0.73815   0.87981   0.68274   0.00000  Uiso   1.00
C614   C     0.68887   0.87933   0.69128   0.00000  Uiso   1.00
C615   C     0.66870   0.84001   0.73452   0.00000  Uiso   1.00
C616   C     0.80327   0.93543   0.71090   0.00000  Uiso   1.00
C617   C     0.80874   0.98171   0.74311   0.00000  Uiso   1.00
C618   C     0.84339   0.98922   0.81006   0.00000  Uiso   1.00
C619   C     0.79682   0.89521   0.56223   0.00000  Uiso   1.00
C620   C     0.79687   0.90769   0.46945   0.00000  Uiso   1.00
C621   C     0.82610   0.88135   0.41123   0.00000  Uiso   1.00
H622   H     0.84130   0.82111   0.72553   0.00000  Uiso   1.00
H623   H     0.76798   0.77405   0.78533   0.00000  Uiso   1.00
H624   H     0.88784   0.87642   0.83714   0.00000  Uiso   1.00
H625   H     0.87597   0.80241   0.56352   0.00000  Uiso   1.00
H626   H     0.67429   0.73840   0.83689   0.00000  Uiso   1.00
H627   H     0.92703   0.95426   0.94612   0.00000  Uiso   1.00
H628   H     0.90199   0.79819   0.36914   0.00000  Uiso   1.00
H629   H     0.74567   0.94840   0.61183   0.00000  Uiso   1.00
H630   H     0.66710   0.90832   0.66538   0.00000  Uiso   1.00
H631   H     0.78696   0.01069   0.71720   0.00000  Uiso   1.00
H632   H     0.77509   0.93668   0.44358   0.00000  Uiso   1.00
H633   H     0.59241   0.84738   0.73954   0.00000  Uiso   1.00
H634   H     0.84515   0.06324   0.84877   0.00000  Uiso   1.00
H635   H     0.82011   0.90717   0.27179   0.00000  Uiso   1.00
O636   O     0.58340   0.76423   0.82552   0.00000  Uiso   1.00
O637   O     0.91498   0.04743   0.96881   0.00000  Uiso   1.00
O638   O     0.88213   0.84267   0.21183   0.00000  Uiso   1.00
N639   N     0.66580   0.76954   0.80661   0.00000  Uiso   1.00
N640   N     0.90209   0.97136   0.90875   0.00000  Uiso   1.00
N641   N     0.87869   0.82545   0.36932   0.00000  Uiso   1.00
N642   N     0.62175   0.82818   0.75423   0.00000  Uiso   1.00
N643   N     0.85803   0.03000   0.85637   0.00000  Uiso   1.00
N644   N     0.83464   0.88410   0.31694   0.00000  Uiso   1.00
C645   C     0.68061   0.64973   0.19948   0.00000  Uiso   1.00
C646   C     0.73371   0.65765   0.21619   0.00000  Uiso   1.00
C647   C     0.75381   0.69697   0.25943   0.00000  Uiso   1.00
C648   C     0.80311   0.69752   0.26805   0.00000  Uiso   1.00
C649   C     0.88127   0.71550   0.29913   0.00000  Uiso   1.00
C650   C     0.66859   0.60203   0.24436   0.00000  Uiso   1.00
C651   C     0.63393   0.59459   0.31127   0.00000  Uiso   1.00
C652   C     0.62841   0.54830   0.34357   0.00000  Uiso   1.00
C653   C     0.60545   0.47993   0.41833   0.00000  Uiso   1.00
C654   C     0.67504   0.64224   0.09569   0.00000  Uiso   1.00
C655   C     0.64581   0.66861   0.03760   0.00000  Uiso   1.00
C656   C     0.64571   0.65618   0.94475   0.00000  Uiso   1.00
C657   C     0.63277   0.65025   0.78867   0.00000  Uiso   1.00
C658   C     0.73242   0.58077   0.13788   0.00000  Uiso   1.00
C659   C     0.76185   0.62019   0.18274   0.00000  Uiso   1.00
C660   C     0.81113   0.62067   0.19128   0.00000  Uiso   1.00
C661   C     0.83130   0.65999   0.23452   0.00000  Uiso   1.00
C662   C     0.69673   0.56457   0.21090   0.00000  Uiso   1.00
C663   C     0.69126   0.51829   0.24311   0.00000  Uiso   1.00
C664   C     0.65661   0.51078   0.31006   0.00000  Uiso   1.00
C665   C     0.70318   0.60479   0.06223   0.00000  Uiso   1.00
C666   C     0.70313   0.59231   0.96945   0.00000  Uiso   1.00
C667   C     0.67390   0.61865   0.91123   0.00000  Uiso   1.00
H668   H     0.65870   0.67889   0.22553   0.00000  Uiso   1.00
H669   H     0.73202   0.72595   0.28533   0.00000  Uiso   1.00
H670   H     0.61216   0.62358   0.33714   0.00000  Uiso   1.00
H671   H     0.62403   0.69759   0.06352   0.00000  Uiso   1.00
H672   H     0.82571   0.76160   0.33689   0.00000  Uiso   1.00
H673   H     0.57297   0.54574   0.44612   0.00000  Uiso   1.00
H674   H     0.59801   0.70181   0.86914   0.00000  Uiso   1.00
H675   H     0.75433   0.55160   0.11183   0.00000  Uiso   1.00
H676   H     0.83290   0.59168   0.16538   0.00000  Uiso   1.00
H677   H     0.71304   0.48931   0.21720   0.00000  Uiso   1.00
H678   H     0.72491   0.56332   0.94358   0.00000  Uiso   1.00
H679   H     0.90759   0.65262   0.23954   0.00000  Uiso   1.00
H680   H     0.65485   0.43676   0.34877   0.00000  Uiso   1.00
H681   H     0.67989   0.59283   0.77179   0.00000  Uiso   1.00
O682   O     0.91660   0.73577   0.32552   0.00000  Uiso   1.00
O683   O     0.58502   0.45257   0.46881   0.00000  Uiso   1.00
O684   O     0.61787   0.65733   0.71183   0.00000  Uiso   1.00
N685   N     0.83420   0.73046   0.30661   0.00000  Uiso   1.00
N686   N     0.59791   0.52864   0.40875   0.00000  Uiso   1.00
N687   N     0.62131   0.67455   0.86932   0.00000  Uiso   1.00
N688   N     0.87825   0.67182   0.25423   0.00000  Uiso   1.00
N689   N     0.64197   0.47000   0.35637   0.00000  Uiso   1.00
N690   N     0.66536   0.61590   0.81694   0.00000  Uiso   1.00
C691   C     0.18061   0.14973   0.69948   0.00000  Uiso   1.00
C692   C     0.23371   0.15765   0.71619   0.00000  Uiso   1.00
C693   C     0.25381   0.19697   0.75943   0.00000  Uiso   1.00
C694   C     0.30311   0.19752   0.76805   0.00000  Uiso   1.00
C695   C     0.38127   0.21550   0.79913   0.00000  Uiso   1.00
C696   C     0.16859   0.10203   0.74436   0.00000  Uiso   1.00
C697   C     0.13393   0.09459   0.81127   0.00000  Uiso   1.00
C698   C     0.12841   0.04830   0.84357   0.00000  Uiso   1.00
C699   C     0.10545   0.97993   0.91833   0.00000  Uiso   1.00
C700   C     0.17504   0.14224   0.59569   0.00000  Uiso   1.00
C701   C     0.14581   0.16861   0.53760   0.00000  Uiso   1.00
C702   C     0.14571   0.15618   0.44475   0.00000  Uiso   1.00
C703   C     0.13277   0.15025   0.28867   0.00000  Uiso   1.00
C704   C     0.23242   0.08077   0.63788   0.00000  Uiso   1.00
C705   C     0.26185   0.12019   0.68274   0.00000  Uiso   1.00
C706   C     0.31113   0.12067   0.69128   0.00000  Uiso   1.00
C707   C     0.33130   0.15999   0.73452   0.00000  Uiso   1.00
C708   C     0.19673   0.06457   0.71090   0.00000  Uiso   1.00
C709   C     0.19126   0.01829   0.74311   0.00000  Uiso   1.00
C710   C     0.15661   0.01078   0.81006   0.00000  Uiso   1.00
C711   C     0.20318   0.10479   0.56223   0.00000  Uiso   1.00
C712   C     0.20313   0.09231   0.46945   0.00000  Uiso   1.00
C713   C     0.17390   0.11865   0.41123   0.00000  Uiso   1.00
H714   H     0.15870   0.17889   0.72553   0.00000  Uiso   1.00
H715   H     0.23202   0.22595   0.78533   0.00000  Uiso   1.00
H716   H     0.11216   0.12358   0.83714   0.00000  Uiso   1.00
H717   H     0.12403   0.19759   0.56352   0.00000  Uiso   1.00
H718   H     0.32571   0.26160   0.83689   0.00000  Uiso   1.00
H719   H     0.07297   0.04574   0.94612   0.00000  Uiso   1.00
H720   H     0.09801   0.20181   0.36914   0.00000  Uiso   1.00
H721   H     0.25433   0.05160   0.61183   0.00000  Uiso   1.00
H722   H     0.33290   0.09168   0.66538   0.00000  Uiso   1.00
H723   H     0.21304   0.98931   0.71720   0.00000  Uiso   1.00
H724   H     0.22491   0.06332   0.44358   0.00000  Uiso   1.00
H725   H     0.40759   0.15262   0.73954   0.00000  Uiso   1.00
H726   H     0.15485   0.93676   0.84877   0.00000  Uiso   1.00
H727   H     0.17989   0.09283   0.27179   0.00000  Uiso   1.00
O728   O     0.41660   0.23577   0.82552   0.00000  Uiso   1.00
O729   O     0.08502   0.95257   0.96881   0.00000  Uiso   1.00
O730   O     0.11787   0.15733   0.21183   0.00000  Uiso   1.00
N731   N     0.33420   0.23046   0.80661   0.00000  Uiso   1.00
N732   N     0.09791   0.02864   0.90875   0.00000  Uiso   1.00
N733   N     0.12131   0.17455   0.36932   0.00000  Uiso   1.00
N734   N     0.37825   0.17182   0.75423   0.00000  Uiso   1.00
N735   N     0.14197   0.97000   0.85637   0.00000  Uiso   1.00
N736   N     0.16536   0.11590   0.31694   0.00000  Uiso   1.00
