data_job_05241
_audit_creation_date              2018-12-19
_audit_creation_method            'Materials Studio'
_symmetry_space_group_name_H-M    'P1'
_symmetry_Int_Tables_number       1
_symmetry_cell_setting            triclinic
loop_
_symmetry_equiv_pos_as_xyz
  x,y,z
_cell_length_a                    45.7215
_cell_length_b                    45.7215
_cell_length_c                    6.9882
_cell_angle_alpha                 90.0000
_cell_angle_beta                  90.0000
_cell_angle_gamma                 90.0000
loop_
_atom_site_label
_atom_site_type_symbol
_atom_site_fract_x
_atom_site_fract_y
_atom_site_fract_z
_atom_site_U_iso_or_equiv
_atom_site_adp_type
_atom_site_occupancy
C1     C     0.38430   0.59467   0.40722   0.00000  Uiso   1.00
C2     C     0.35658   0.58216   0.49672   0.00000  Uiso   1.00
C3     C     0.33554   0.56574   0.40218   0.00000  Uiso   1.00
C4     C     0.31176   0.55632   0.50934   0.00000  Uiso   1.00
C5     C     0.26910   0.53587   0.61867   0.00000  Uiso   1.00
C6     C     0.38338   0.62752   0.44449   0.00000  Uiso   1.00
C7     C     0.38487   0.64923   0.30604   0.00000  Uiso   1.00
C8     C     0.38366   0.67800   0.36926   0.00000  Uiso   1.00
C9     C     0.38262   0.72797   0.39751   0.00000  Uiso   1.00
C10    C     0.40967   0.58289   0.52608   0.00000  Uiso   1.00
C11    C     0.43328   0.56707   0.45623   0.00000  Uiso   1.00
C12    C     0.45421   0.55826   0.58812   0.00000  Uiso   1.00
C13    C     0.49400   0.53894   0.74305   0.00000  Uiso   1.00
C14    C     0.37950   0.60715   0.76565   0.00000  Uiso   1.00
C15    C     0.35397   0.58894   0.69140   0.00000  Uiso   1.00
C16    C     0.33023   0.57954   0.79874   0.00000  Uiso   1.00
C17    C     0.30915   0.56311   0.70438   0.00000  Uiso   1.00
C18    C     0.38077   0.63430   0.63917   0.00000  Uiso   1.00
C19    C     0.37956   0.66304   0.70260   0.00000  Uiso   1.00
C20    C     0.38105   0.68479   0.56429   0.00000  Uiso   1.00
C21    C     0.40706   0.58966   0.72077   0.00000  Uiso   1.00
C22    C     0.42797   0.58088   0.85279   0.00000  Uiso   1.00
C23    C     0.45160   0.56506   0.78316   0.00000  Uiso   1.00
H24    H     0.38634   0.58940   0.25565   0.00000  Uiso   1.00
H25    H     0.33756   0.56050   0.25151   0.00000  Uiso   1.00
H26    H     0.38689   0.64398   0.15540   0.00000  Uiso   1.00
H27    H     0.43529   0.56183   0.30556   0.00000  Uiso   1.00
H28    H     0.28233   0.53146   0.33276   0.00000  Uiso   1.00
H29    H     0.38636   0.70748   0.13010   0.00000  Uiso   1.00
H30    H     0.48841   0.53426   0.44675   0.00000  Uiso   1.00
H31    H     0.37747   0.61243   0.91723   0.00000  Uiso   1.00
H32    H     0.32821   0.58479   0.94940   0.00000  Uiso   1.00
H33    H     0.37754   0.66827   0.85328   0.00000  Uiso   1.00
H34    H     0.42594   0.58613   0.00344   0.00000  Uiso   1.00
H35    H     0.27474   0.55118   0.89919   0.00000  Uiso   1.00
H36    H     0.37877   0.72720   0.69653   0.00000  Uiso   1.00
H37    H     0.48083   0.55398   0.01318   0.00000  Uiso   1.00
O38    O     0.24629   0.52273   0.62518   0.00000  Uiso   1.00
O39    O     0.38277   0.75367   0.35930   0.00000  Uiso   1.00
O40    O     0.51666   0.52640   0.77474   0.00000  Uiso   1.00
N41    N     0.28731   0.53989   0.46166   0.00000  Uiso   1.00
N42    N     0.38456   0.70446   0.27219   0.00000  Uiso   1.00
N43    N     0.47998   0.54252   0.56822   0.00000  Uiso   1.00
N44    N     0.28323   0.55050   0.76646   0.00000  Uiso   1.00
N45    N     0.38048   0.71507   0.57698   0.00000  Uiso   1.00
N46    N     0.47590   0.55313   0.87301   0.00000  Uiso   1.00
C47    C     0.88430   0.09467   0.90722   0.00000  Uiso   1.00
C48    C     0.85658   0.08216   0.99672   0.00000  Uiso   1.00
C49    C     0.83554   0.06574   0.90218   0.00000  Uiso   1.00
C50    C     0.81176   0.05632   0.00934   0.00000  Uiso   1.00
C51    C     0.76910   0.03587   0.11867   0.00000  Uiso   1.00
C52    C     0.88338   0.12752   0.94449   0.00000  Uiso   1.00
C53    C     0.88487   0.14923   0.80604   0.00000  Uiso   1.00
C54    C     0.88366   0.17800   0.86926   0.00000  Uiso   1.00
C55    C     0.88262   0.22797   0.89751   0.00000  Uiso   1.00
C56    C     0.90967   0.08289   0.02608   0.00000  Uiso   1.00
C57    C     0.93328   0.06707   0.95623   0.00000  Uiso   1.00
C58    C     0.95421   0.05826   0.08812   0.00000  Uiso   1.00
C59    C     0.99400   0.03894   0.24305   0.00000  Uiso   1.00
C60    C     0.87950   0.10715   0.26565   0.00000  Uiso   1.00
C61    C     0.85397   0.08894   0.19140   0.00000  Uiso   1.00
C62    C     0.83023   0.07954   0.29874   0.00000  Uiso   1.00
C63    C     0.80915   0.06311   0.20438   0.00000  Uiso   1.00
C64    C     0.88077   0.13430   0.13917   0.00000  Uiso   1.00
C65    C     0.87956   0.16304   0.20260   0.00000  Uiso   1.00
C66    C     0.88105   0.18479   0.06429   0.00000  Uiso   1.00
C67    C     0.90706   0.08966   0.22077   0.00000  Uiso   1.00
C68    C     0.92797   0.08088   0.35279   0.00000  Uiso   1.00
C69    C     0.95160   0.06506   0.28316   0.00000  Uiso   1.00
H70    H     0.88634   0.08940   0.75565   0.00000  Uiso   1.00
H71    H     0.83756   0.06050   0.75151   0.00000  Uiso   1.00
H72    H     0.88689   0.14398   0.65540   0.00000  Uiso   1.00
H73    H     0.93529   0.06183   0.80556   0.00000  Uiso   1.00
H74    H     0.78233   0.03146   0.83276   0.00000  Uiso   1.00
H75    H     0.88636   0.20748   0.63010   0.00000  Uiso   1.00
H76    H     0.98841   0.03426   0.94675   0.00000  Uiso   1.00
H77    H     0.87747   0.11243   0.41723   0.00000  Uiso   1.00
H78    H     0.82821   0.08479   0.44940   0.00000  Uiso   1.00
H79    H     0.87754   0.16827   0.35328   0.00000  Uiso   1.00
H80    H     0.92594   0.08613   0.50344   0.00000  Uiso   1.00
H81    H     0.77474   0.05118   0.39919   0.00000  Uiso   1.00
H82    H     0.87877   0.22720   0.19653   0.00000  Uiso   1.00
H83    H     0.98083   0.05398   0.51318   0.00000  Uiso   1.00
O84    O     0.74629   0.02273   0.12518   0.00000  Uiso   1.00
O85    O     0.88277   0.25367   0.85930   0.00000  Uiso   1.00
O86    O     0.01666   0.02640   0.27474   0.00000  Uiso   1.00
N87    N     0.78731   0.03989   0.96166   0.00000  Uiso   1.00
N88    N     0.88456   0.20446   0.77219   0.00000  Uiso   1.00
N89    N     0.97998   0.04252   0.06822   0.00000  Uiso   1.00
N90    N     0.78323   0.05050   0.26646   0.00000  Uiso   1.00
N91    N     0.88048   0.21507   0.07698   0.00000  Uiso   1.00
N92    N     0.97590   0.05313   0.37301   0.00000  Uiso   1.00
C93    C     0.61570   0.40533   0.40722   0.00000  Uiso   1.00
C94    C     0.64342   0.41784   0.49672   0.00000  Uiso   1.00
C95    C     0.66446   0.43426   0.40218   0.00000  Uiso   1.00
C96    C     0.68824   0.44368   0.50934   0.00000  Uiso   1.00
C97    C     0.73090   0.46413   0.61867   0.00000  Uiso   1.00
C98    C     0.61662   0.37248   0.44449   0.00000  Uiso   1.00
C99    C     0.61513   0.35077   0.30604   0.00000  Uiso   1.00
C100   C     0.61634   0.32200   0.36926   0.00000  Uiso   1.00
C101   C     0.61738   0.27203   0.39751   0.00000  Uiso   1.00
C102   C     0.59033   0.41711   0.52608   0.00000  Uiso   1.00
C103   C     0.56672   0.43293   0.45623   0.00000  Uiso   1.00
C104   C     0.54579   0.44174   0.58812   0.00000  Uiso   1.00
C105   C     0.50600   0.46106   0.74305   0.00000  Uiso   1.00
C106   C     0.62050   0.39285   0.76565   0.00000  Uiso   1.00
C107   C     0.64603   0.41106   0.69140   0.00000  Uiso   1.00
C108   C     0.66977   0.42046   0.79874   0.00000  Uiso   1.00
C109   C     0.69085   0.43689   0.70438   0.00000  Uiso   1.00
C110   C     0.61923   0.36570   0.63917   0.00000  Uiso   1.00
C111   C     0.62044   0.33696   0.70260   0.00000  Uiso   1.00
C112   C     0.61895   0.31521   0.56429   0.00000  Uiso   1.00
C113   C     0.59294   0.41034   0.72077   0.00000  Uiso   1.00
C114   C     0.57203   0.41912   0.85279   0.00000  Uiso   1.00
C115   C     0.54840   0.43494   0.78316   0.00000  Uiso   1.00
H116   H     0.61366   0.41060   0.25565   0.00000  Uiso   1.00
H117   H     0.66244   0.43950   0.25151   0.00000  Uiso   1.00
H118   H     0.61311   0.35602   0.15540   0.00000  Uiso   1.00
H119   H     0.56471   0.43817   0.30556   0.00000  Uiso   1.00
H120   H     0.71767   0.46854   0.33276   0.00000  Uiso   1.00
H121   H     0.61364   0.29252   0.13010   0.00000  Uiso   1.00
H122   H     0.51159   0.46574   0.44675   0.00000  Uiso   1.00
H123   H     0.62253   0.38757   0.91723   0.00000  Uiso   1.00
H124   H     0.67179   0.41521   0.94940   0.00000  Uiso   1.00
H125   H     0.62246   0.33173   0.85328   0.00000  Uiso   1.00
H126   H     0.57406   0.41387   0.00344   0.00000  Uiso   1.00
H127   H     0.72526   0.44882   0.89919   0.00000  Uiso   1.00
H128   H     0.62123   0.27280   0.69653   0.00000  Uiso   1.00
H129   H     0.51917   0.44602   0.01318   0.00000  Uiso   1.00
O130   O     0.75371   0.47727   0.62518   0.00000  Uiso   1.00
O131   O     0.61723   0.24633   0.35930   0.00000  Uiso   1.00
O132   O     0.48334   0.47360   0.77474   0.00000  Uiso   1.00
N133   N     0.71269   0.46011   0.46166   0.00000  Uiso   1.00
N134   N     0.61544   0.29554   0.27219   0.00000  Uiso   1.00
N135   N     0.52002   0.45748   0.56822   0.00000  Uiso   1.00
N136   N     0.71677   0.44950   0.76646   0.00000  Uiso   1.00
N137   N     0.61952   0.28493   0.57698   0.00000  Uiso   1.00
N138   N     0.52410   0.44687   0.87301   0.00000  Uiso   1.00
C139   C     0.11570   0.90533   0.90722   0.00000  Uiso   1.00
C140   C     0.14342   0.91784   0.99672   0.00000  Uiso   1.00
C141   C     0.16446   0.93426   0.90218   0.00000  Uiso   1.00
C142   C     0.18824   0.94368   0.00934   0.00000  Uiso   1.00
C143   C     0.23090   0.96413   0.11867   0.00000  Uiso   1.00
C144   C     0.11662   0.87248   0.94449   0.00000  Uiso   1.00
C145   C     0.11513   0.85077   0.80604   0.00000  Uiso   1.00
C146   C     0.11634   0.82200   0.86926   0.00000  Uiso   1.00
C147   C     0.11738   0.77203   0.89751   0.00000  Uiso   1.00
C148   C     0.09033   0.91711   0.02608   0.00000  Uiso   1.00
C149   C     0.06672   0.93293   0.95623   0.00000  Uiso   1.00
C150   C     0.04579   0.94174   0.08812   0.00000  Uiso   1.00
C151   C     0.00600   0.96106   0.24305   0.00000  Uiso   1.00
C152   C     0.12050   0.89285   0.26565   0.00000  Uiso   1.00
C153   C     0.14603   0.91106   0.19140   0.00000  Uiso   1.00
C154   C     0.16977   0.92046   0.29874   0.00000  Uiso   1.00
C155   C     0.19085   0.93689   0.20438   0.00000  Uiso   1.00
C156   C     0.11923   0.86570   0.13917   0.00000  Uiso   1.00
C157   C     0.12044   0.83696   0.20260   0.00000  Uiso   1.00
C158   C     0.11895   0.81521   0.06429   0.00000  Uiso   1.00
C159   C     0.09294   0.91034   0.22077   0.00000  Uiso   1.00
C160   C     0.07203   0.91912   0.35279   0.00000  Uiso   1.00
C161   C     0.04840   0.93494   0.28316   0.00000  Uiso   1.00
H162   H     0.11366   0.91060   0.75565   0.00000  Uiso   1.00
H163   H     0.16244   0.93950   0.75151   0.00000  Uiso   1.00
H164   H     0.11311   0.85602   0.65540   0.00000  Uiso   1.00
H165   H     0.06471   0.93817   0.80556   0.00000  Uiso   1.00
H166   H     0.21767   0.96854   0.83276   0.00000  Uiso   1.00
H167   H     0.11364   0.79252   0.63010   0.00000  Uiso   1.00
H168   H     0.01159   0.96574   0.94675   0.00000  Uiso   1.00
H169   H     0.12253   0.88757   0.41723   0.00000  Uiso   1.00
H170   H     0.17179   0.91521   0.44940   0.00000  Uiso   1.00
H171   H     0.12246   0.83173   0.35328   0.00000  Uiso   1.00
H172   H     0.07406   0.91387   0.50344   0.00000  Uiso   1.00
H173   H     0.22526   0.94882   0.39919   0.00000  Uiso   1.00
H174   H     0.12123   0.77280   0.19653   0.00000  Uiso   1.00
H175   H     0.01917   0.94602   0.51318   0.00000  Uiso   1.00
O176   O     0.25371   0.97727   0.12518   0.00000  Uiso   1.00
O177   O     0.11723   0.74633   0.85930   0.00000  Uiso   1.00
O178   O     0.98334   0.97360   0.27474   0.00000  Uiso   1.00
N179   N     0.21269   0.96011   0.96166   0.00000  Uiso   1.00
N180   N     0.11544   0.79554   0.77219   0.00000  Uiso   1.00
N181   N     0.02002   0.95748   0.06822   0.00000  Uiso   1.00
N182   N     0.21677   0.94950   0.26646   0.00000  Uiso   1.00
N183   N     0.11952   0.78493   0.07698   0.00000  Uiso   1.00
N184   N     0.02410   0.94687   0.37301   0.00000  Uiso   1.00
C185   C     0.59467   0.61570   0.59278   0.00000  Uiso   1.00
C186   C     0.58216   0.64342   0.50328   0.00000  Uiso   1.00
C187   C     0.56574   0.66446   0.59782   0.00000  Uiso   1.00
C188   C     0.55632   0.68824   0.49066   0.00000  Uiso   1.00
C189   C     0.53587   0.73090   0.38133   0.00000  Uiso   1.00
C190   C     0.62752   0.61662   0.55551   0.00000  Uiso   1.00
C191   C     0.64923   0.61513   0.69396   0.00000  Uiso   1.00
C192   C     0.67800   0.61634   0.63074   0.00000  Uiso   1.00
C193   C     0.72797   0.61738   0.60249   0.00000  Uiso   1.00
C194   C     0.58289   0.59033   0.47392   0.00000  Uiso   1.00
C195   C     0.56707   0.56672   0.54377   0.00000  Uiso   1.00
C196   C     0.55826   0.54579   0.41188   0.00000  Uiso   1.00
C197   C     0.53894   0.50600   0.25695   0.00000  Uiso   1.00
C198   C     0.60715   0.62050   0.23435   0.00000  Uiso   1.00
C199   C     0.58894   0.64603   0.30860   0.00000  Uiso   1.00
C200   C     0.57954   0.66977   0.20126   0.00000  Uiso   1.00
C201   C     0.56311   0.69085   0.29562   0.00000  Uiso   1.00
C202   C     0.63430   0.61923   0.36083   0.00000  Uiso   1.00
C203   C     0.66304   0.62044   0.29740   0.00000  Uiso   1.00
C204   C     0.68479   0.61895   0.43571   0.00000  Uiso   1.00
C205   C     0.58966   0.59294   0.27923   0.00000  Uiso   1.00
C206   C     0.58088   0.57203   0.14721   0.00000  Uiso   1.00
C207   C     0.56506   0.54840   0.21684   0.00000  Uiso   1.00
H208   H     0.58940   0.61366   0.74435   0.00000  Uiso   1.00
H209   H     0.56050   0.66244   0.74849   0.00000  Uiso   1.00
H210   H     0.64398   0.61311   0.84460   0.00000  Uiso   1.00
H211   H     0.56183   0.56471   0.69444   0.00000  Uiso   1.00
H212   H     0.53146   0.71767   0.66724   0.00000  Uiso   1.00
H213   H     0.70748   0.61364   0.86990   0.00000  Uiso   1.00
H214   H     0.53426   0.51159   0.55325   0.00000  Uiso   1.00
H215   H     0.61243   0.62253   0.08277   0.00000  Uiso   1.00
H216   H     0.58479   0.67179   0.05060   0.00000  Uiso   1.00
H217   H     0.66827   0.62246   0.14672   0.00000  Uiso   1.00
H218   H     0.58613   0.57406   0.99656   0.00000  Uiso   1.00
H219   H     0.55118   0.72526   0.10081   0.00000  Uiso   1.00
H220   H     0.72720   0.62123   0.30347   0.00000  Uiso   1.00
H221   H     0.55398   0.51917   0.98682   0.00000  Uiso   1.00
O222   O     0.52273   0.75371   0.37482   0.00000  Uiso   1.00
O223   O     0.75367   0.61723   0.64070   0.00000  Uiso   1.00
O224   O     0.52640   0.48334   0.22526   0.00000  Uiso   1.00
N225   N     0.53989   0.71269   0.53834   0.00000  Uiso   1.00
N226   N     0.70446   0.61544   0.72781   0.00000  Uiso   1.00
N227   N     0.54252   0.52002   0.43178   0.00000  Uiso   1.00
N228   N     0.55050   0.71677   0.23354   0.00000  Uiso   1.00
N229   N     0.71507   0.61952   0.42302   0.00000  Uiso   1.00
N230   N     0.55313   0.52410   0.12699   0.00000  Uiso   1.00
C231   C     0.09467   0.11570   0.09278   0.00000  Uiso   1.00
C232   C     0.08216   0.14342   0.00328   0.00000  Uiso   1.00
C233   C     0.06574   0.16446   0.09782   0.00000  Uiso   1.00
C234   C     0.05632   0.18824   0.99066   0.00000  Uiso   1.00
C235   C     0.03587   0.23090   0.88133   0.00000  Uiso   1.00
C236   C     0.12752   0.11662   0.05551   0.00000  Uiso   1.00
C237   C     0.14923   0.11513   0.19396   0.00000  Uiso   1.00
C238   C     0.17800   0.11634   0.13074   0.00000  Uiso   1.00
C239   C     0.22797   0.11738   0.10249   0.00000  Uiso   1.00
C240   C     0.08289   0.09033   0.97392   0.00000  Uiso   1.00
C241   C     0.06707   0.06672   0.04377   0.00000  Uiso   1.00
C242   C     0.05826   0.04579   0.91188   0.00000  Uiso   1.00
C243   C     0.03894   0.00600   0.75695   0.00000  Uiso   1.00
C244   C     0.10715   0.12050   0.73435   0.00000  Uiso   1.00
C245   C     0.08894   0.14603   0.80860   0.00000  Uiso   1.00
C246   C     0.07954   0.16977   0.70126   0.00000  Uiso   1.00
C247   C     0.06311   0.19085   0.79562   0.00000  Uiso   1.00
C248   C     0.13430   0.11923   0.86083   0.00000  Uiso   1.00
C249   C     0.16304   0.12044   0.79740   0.00000  Uiso   1.00
C250   C     0.18479   0.11895   0.93571   0.00000  Uiso   1.00
C251   C     0.08966   0.09294   0.77923   0.00000  Uiso   1.00
C252   C     0.08088   0.07203   0.64721   0.00000  Uiso   1.00
C253   C     0.06506   0.04840   0.71684   0.00000  Uiso   1.00
H254   H     0.08940   0.11366   0.24435   0.00000  Uiso   1.00
H255   H     0.06050   0.16244   0.24849   0.00000  Uiso   1.00
H256   H     0.14398   0.11311   0.34460   0.00000  Uiso   1.00
H257   H     0.06183   0.06471   0.19444   0.00000  Uiso   1.00
H258   H     0.03146   0.21767   0.16724   0.00000  Uiso   1.00
H259   H     0.20748   0.11364   0.36990   0.00000  Uiso   1.00
H260   H     0.03426   0.01159   0.05325   0.00000  Uiso   1.00
H261   H     0.11243   0.12253   0.58277   0.00000  Uiso   1.00
H262   H     0.08479   0.17179   0.55060   0.00000  Uiso   1.00
H263   H     0.16827   0.12246   0.64672   0.00000  Uiso   1.00
H264   H     0.08613   0.07406   0.49656   0.00000  Uiso   1.00
H265   H     0.05118   0.22526   0.60081   0.00000  Uiso   1.00
H266   H     0.22720   0.12123   0.80347   0.00000  Uiso   1.00
H267   H     0.05398   0.01917   0.48682   0.00000  Uiso   1.00
O268   O     0.02273   0.25371   0.87482   0.00000  Uiso   1.00
O269   O     0.25367   0.11723   0.14070   0.00000  Uiso   1.00
O270   O     0.02640   0.98334   0.72526   0.00000  Uiso   1.00
N271   N     0.03989   0.21269   0.03834   0.00000  Uiso   1.00
N272   N     0.20446   0.11544   0.22781   0.00000  Uiso   1.00
N273   N     0.04252   0.02002   0.93178   0.00000  Uiso   1.00
N274   N     0.05050   0.21677   0.73354   0.00000  Uiso   1.00
N275   N     0.21507   0.11952   0.92302   0.00000  Uiso   1.00
N276   N     0.05313   0.02410   0.62699   0.00000  Uiso   1.00
C277   C     0.40533   0.38430   0.59278   0.00000  Uiso   1.00
C278   C     0.41784   0.35658   0.50328   0.00000  Uiso   1.00
C279   C     0.43426   0.33554   0.59782   0.00000  Uiso   1.00
C280   C     0.44368   0.31176   0.49066   0.00000  Uiso   1.00
C281   C     0.46413   0.26910   0.38133   0.00000  Uiso   1.00
C282   C     0.37248   0.38338   0.55551   0.00000  Uiso   1.00
C283   C     0.35077   0.38487   0.69396   0.00000  Uiso   1.00
C284   C     0.32200   0.38366   0.63074   0.00000  Uiso   1.00
C285   C     0.27203   0.38262   0.60249   0.00000  Uiso   1.00
C286   C     0.41711   0.40967   0.47392   0.00000  Uiso   1.00
C287   C     0.43293   0.43328   0.54377   0.00000  Uiso   1.00
C288   C     0.44174   0.45421   0.41188   0.00000  Uiso   1.00
C289   C     0.46106   0.49400   0.25695   0.00000  Uiso   1.00
C290   C     0.39285   0.37950   0.23435   0.00000  Uiso   1.00
C291   C     0.41106   0.35397   0.30860   0.00000  Uiso   1.00
C292   C     0.42046   0.33023   0.20126   0.00000  Uiso   1.00
C293   C     0.43689   0.30915   0.29562   0.00000  Uiso   1.00
C294   C     0.36570   0.38077   0.36083   0.00000  Uiso   1.00
C295   C     0.33696   0.37956   0.29740   0.00000  Uiso   1.00
C296   C     0.31521   0.38105   0.43571   0.00000  Uiso   1.00
C297   C     0.41034   0.40706   0.27923   0.00000  Uiso   1.00
C298   C     0.41912   0.42797   0.14721   0.00000  Uiso   1.00
C299   C     0.43494   0.45160   0.21684   0.00000  Uiso   1.00
H300   H     0.41060   0.38634   0.74435   0.00000  Uiso   1.00
H301   H     0.43950   0.33756   0.74849   0.00000  Uiso   1.00
H302   H     0.35602   0.38689   0.84460   0.00000  Uiso   1.00
H303   H     0.43817   0.43529   0.69444   0.00000  Uiso   1.00
H304   H     0.46854   0.28233   0.66724   0.00000  Uiso   1.00
H305   H     0.29252   0.38636   0.86990   0.00000  Uiso   1.00
H306   H     0.46574   0.48841   0.55325   0.00000  Uiso   1.00
H307   H     0.38757   0.37747   0.08277   0.00000  Uiso   1.00
H308   H     0.41521   0.32821   0.05060   0.00000  Uiso   1.00
H309   H     0.33173   0.37754   0.14672   0.00000  Uiso   1.00
H310   H     0.41387   0.42594   0.99656   0.00000  Uiso   1.00
H311   H     0.44882   0.27474   0.10081   0.00000  Uiso   1.00
H312   H     0.27280   0.37877   0.30347   0.00000  Uiso   1.00
H313   H     0.44602   0.48083   0.98682   0.00000  Uiso   1.00
O314   O     0.47727   0.24629   0.37482   0.00000  Uiso   1.00
O315   O     0.24633   0.38277   0.64070   0.00000  Uiso   1.00
O316   O     0.47360   0.51666   0.22526   0.00000  Uiso   1.00
N317   N     0.46011   0.28731   0.53834   0.00000  Uiso   1.00
N318   N     0.29554   0.38456   0.72781   0.00000  Uiso   1.00
N319   N     0.45748   0.47998   0.43178   0.00000  Uiso   1.00
N320   N     0.44950   0.28323   0.23354   0.00000  Uiso   1.00
N321   N     0.28493   0.38048   0.42302   0.00000  Uiso   1.00
N322   N     0.44687   0.47590   0.12699   0.00000  Uiso   1.00
C323   C     0.90533   0.88430   0.09278   0.00000  Uiso   1.00
C324   C     0.91784   0.85658   0.00328   0.00000  Uiso   1.00
C325   C     0.93426   0.83554   0.09782   0.00000  Uiso   1.00
C326   C     0.94368   0.81176   0.99066   0.00000  Uiso   1.00
C327   C     0.96413   0.76910   0.88133   0.00000  Uiso   1.00
C328   C     0.87248   0.88338   0.05551   0.00000  Uiso   1.00
C329   C     0.85077   0.88487   0.19396   0.00000  Uiso   1.00
C330   C     0.82200   0.88366   0.13074   0.00000  Uiso   1.00
C331   C     0.77203   0.88262   0.10249   0.00000  Uiso   1.00
C332   C     0.91711   0.90967   0.97392   0.00000  Uiso   1.00
C333   C     0.93293   0.93328   0.04377   0.00000  Uiso   1.00
C334   C     0.94174   0.95421   0.91188   0.00000  Uiso   1.00
C335   C     0.96106   0.99400   0.75695   0.00000  Uiso   1.00
C336   C     0.89285   0.87950   0.73435   0.00000  Uiso   1.00
C337   C     0.91106   0.85397   0.80860   0.00000  Uiso   1.00
C338   C     0.92046   0.83023   0.70126   0.00000  Uiso   1.00
C339   C     0.93689   0.80915   0.79562   0.00000  Uiso   1.00
C340   C     0.86570   0.88077   0.86083   0.00000  Uiso   1.00
C341   C     0.83696   0.87956   0.79740   0.00000  Uiso   1.00
C342   C     0.81521   0.88105   0.93571   0.00000  Uiso   1.00
C343   C     0.91034   0.90706   0.77923   0.00000  Uiso   1.00
C344   C     0.91912   0.92797   0.64721   0.00000  Uiso   1.00
C345   C     0.93494   0.95160   0.71684   0.00000  Uiso   1.00
H346   H     0.91060   0.88634   0.24435   0.00000  Uiso   1.00
H347   H     0.93950   0.83756   0.24849   0.00000  Uiso   1.00
H348   H     0.85602   0.88689   0.34460   0.00000  Uiso   1.00
H349   H     0.93817   0.93529   0.19444   0.00000  Uiso   1.00
H350   H     0.96854   0.78233   0.16724   0.00000  Uiso   1.00
H351   H     0.79252   0.88636   0.36990   0.00000  Uiso   1.00
H352   H     0.96574   0.98841   0.05325   0.00000  Uiso   1.00
H353   H     0.88757   0.87747   0.58277   0.00000  Uiso   1.00
H354   H     0.91521   0.82821   0.55060   0.00000  Uiso   1.00
H355   H     0.83173   0.87754   0.64672   0.00000  Uiso   1.00
H356   H     0.91387   0.92594   0.49656   0.00000  Uiso   1.00
H357   H     0.94882   0.77474   0.60081   0.00000  Uiso   1.00
H358   H     0.77280   0.87877   0.80347   0.00000  Uiso   1.00
H359   H     0.94602   0.98083   0.48682   0.00000  Uiso   1.00
O360   O     0.97727   0.74629   0.87482   0.00000  Uiso   1.00
O361   O     0.74633   0.88277   0.14070   0.00000  Uiso   1.00
O362   O     0.97360   0.01666   0.72526   0.00000  Uiso   1.00
N363   N     0.96011   0.78731   0.03834   0.00000  Uiso   1.00
N364   N     0.79554   0.88456   0.22781   0.00000  Uiso   1.00
N365   N     0.95748   0.97998   0.93178   0.00000  Uiso   1.00
N366   N     0.94950   0.78323   0.73354   0.00000  Uiso   1.00
N367   N     0.78493   0.88048   0.92302   0.00000  Uiso   1.00
N368   N     0.94687   0.97590   0.62699   0.00000  Uiso   1.00
C369   C     0.11570   0.59467   0.34278   0.00000  Uiso   1.00
C370   C     0.14342   0.58216   0.25328   0.00000  Uiso   1.00
C371   C     0.16446   0.56574   0.34782   0.00000  Uiso   1.00
C372   C     0.18824   0.55632   0.24066   0.00000  Uiso   1.00
C373   C     0.23090   0.53587   0.13133   0.00000  Uiso   1.00
C374   C     0.11662   0.62752   0.30551   0.00000  Uiso   1.00
C375   C     0.11513   0.64923   0.44396   0.00000  Uiso   1.00
C376   C     0.11634   0.67800   0.38074   0.00000  Uiso   1.00
C377   C     0.11738   0.72797   0.35249   0.00000  Uiso   1.00
C378   C     0.09033   0.58289   0.22392   0.00000  Uiso   1.00
C379   C     0.06672   0.56707   0.29377   0.00000  Uiso   1.00
C380   C     0.04579   0.55826   0.16188   0.00000  Uiso   1.00
C381   C     0.00600   0.53894   0.00695   0.00000  Uiso   1.00
C382   C     0.12050   0.60715   0.98435   0.00000  Uiso   1.00
C383   C     0.14603   0.58894   0.05860   0.00000  Uiso   1.00
C384   C     0.16977   0.57954   0.95126   0.00000  Uiso   1.00
C385   C     0.19085   0.56311   0.04562   0.00000  Uiso   1.00
C386   C     0.11923   0.63430   0.11083   0.00000  Uiso   1.00
C387   C     0.12044   0.66304   0.04740   0.00000  Uiso   1.00
C388   C     0.11895   0.68479   0.18571   0.00000  Uiso   1.00
C389   C     0.09294   0.58966   0.02923   0.00000  Uiso   1.00
C390   C     0.07203   0.58088   0.89721   0.00000  Uiso   1.00
C391   C     0.04840   0.56506   0.96684   0.00000  Uiso   1.00
H392   H     0.11366   0.58940   0.49435   0.00000  Uiso   1.00
H393   H     0.16244   0.56050   0.49849   0.00000  Uiso   1.00
H394   H     0.11311   0.64398   0.59460   0.00000  Uiso   1.00
H395   H     0.06471   0.56183   0.44444   0.00000  Uiso   1.00
H396   H     0.21767   0.53146   0.41724   0.00000  Uiso   1.00
H397   H     0.11364   0.70748   0.61990   0.00000  Uiso   1.00
H398   H     0.01159   0.53426   0.30325   0.00000  Uiso   1.00
H399   H     0.12253   0.61243   0.83277   0.00000  Uiso   1.00
H400   H     0.17179   0.58479   0.80060   0.00000  Uiso   1.00
H401   H     0.12246   0.66827   0.89672   0.00000  Uiso   1.00
H402   H     0.07406   0.58613   0.74656   0.00000  Uiso   1.00
H403   H     0.22526   0.55118   0.85081   0.00000  Uiso   1.00
H404   H     0.12123   0.72720   0.05347   0.00000  Uiso   1.00
H405   H     0.01917   0.55398   0.73682   0.00000  Uiso   1.00
O406   O     0.25371   0.52273   0.12482   0.00000  Uiso   1.00
O407   O     0.11723   0.75367   0.39070   0.00000  Uiso   1.00
O408   O     0.98334   0.52640   0.97526   0.00000  Uiso   1.00
N409   N     0.21269   0.53989   0.28834   0.00000  Uiso   1.00
N410   N     0.11544   0.70446   0.47781   0.00000  Uiso   1.00
N411   N     0.02002   0.54252   0.18178   0.00000  Uiso   1.00
N412   N     0.21677   0.55050   0.98354   0.00000  Uiso   1.00
N413   N     0.11952   0.71507   0.17302   0.00000  Uiso   1.00
N414   N     0.02410   0.55313   0.87699   0.00000  Uiso   1.00
C415   C     0.61570   0.09467   0.84278   0.00000  Uiso   1.00
C416   C     0.64342   0.08216   0.75328   0.00000  Uiso   1.00
C417   C     0.66446   0.06574   0.84782   0.00000  Uiso   1.00
C418   C     0.68824   0.05632   0.74066   0.00000  Uiso   1.00
C419   C     0.73090   0.03587   0.63133   0.00000  Uiso   1.00
C420   C     0.61662   0.12752   0.80551   0.00000  Uiso   1.00
C421   C     0.61513   0.14923   0.94396   0.00000  Uiso   1.00
C422   C     0.61634   0.17800   0.88074   0.00000  Uiso   1.00
C423   C     0.61738   0.22797   0.85249   0.00000  Uiso   1.00
C424   C     0.59033   0.08289   0.72392   0.00000  Uiso   1.00
C425   C     0.56672   0.06707   0.79377   0.00000  Uiso   1.00
C426   C     0.54579   0.05826   0.66188   0.00000  Uiso   1.00
C427   C     0.50600   0.03894   0.50695   0.00000  Uiso   1.00
C428   C     0.62050   0.10715   0.48435   0.00000  Uiso   1.00
C429   C     0.64603   0.08894   0.55860   0.00000  Uiso   1.00
C430   C     0.66977   0.07954   0.45126   0.00000  Uiso   1.00
C431   C     0.69085   0.06311   0.54562   0.00000  Uiso   1.00
C432   C     0.61923   0.13430   0.61083   0.00000  Uiso   1.00
C433   C     0.62044   0.16304   0.54740   0.00000  Uiso   1.00
C434   C     0.61895   0.18479   0.68571   0.00000  Uiso   1.00
C435   C     0.59294   0.08966   0.52923   0.00000  Uiso   1.00
C436   C     0.57203   0.08088   0.39721   0.00000  Uiso   1.00
C437   C     0.54840   0.06506   0.46684   0.00000  Uiso   1.00
H438   H     0.61366   0.08940   0.99435   0.00000  Uiso   1.00
H439   H     0.66244   0.06050   0.99849   0.00000  Uiso   1.00
H440   H     0.61311   0.14398   0.09460   0.00000  Uiso   1.00
H441   H     0.56471   0.06183   0.94444   0.00000  Uiso   1.00
H442   H     0.71767   0.03146   0.91724   0.00000  Uiso   1.00
H443   H     0.61364   0.20748   0.11990   0.00000  Uiso   1.00
H444   H     0.51159   0.03426   0.80325   0.00000  Uiso   1.00
H445   H     0.62253   0.11243   0.33277   0.00000  Uiso   1.00
H446   H     0.67179   0.08479   0.30060   0.00000  Uiso   1.00
H447   H     0.62246   0.16827   0.39672   0.00000  Uiso   1.00
H448   H     0.57406   0.08613   0.24656   0.00000  Uiso   1.00
H449   H     0.72526   0.05118   0.35081   0.00000  Uiso   1.00
H450   H     0.62123   0.22720   0.55347   0.00000  Uiso   1.00
H451   H     0.51917   0.05398   0.23682   0.00000  Uiso   1.00
O452   O     0.75371   0.02273   0.62482   0.00000  Uiso   1.00
O453   O     0.61723   0.25367   0.89070   0.00000  Uiso   1.00
O454   O     0.48334   0.02640   0.47526   0.00000  Uiso   1.00
N455   N     0.71269   0.03989   0.78834   0.00000  Uiso   1.00
N456   N     0.61544   0.20446   0.97781   0.00000  Uiso   1.00
N457   N     0.52002   0.04252   0.68178   0.00000  Uiso   1.00
N458   N     0.71677   0.05050   0.48354   0.00000  Uiso   1.00
N459   N     0.61952   0.21507   0.67302   0.00000  Uiso   1.00
N460   N     0.52410   0.05313   0.37699   0.00000  Uiso   1.00
C461   C     0.88430   0.40533   0.34278   0.00000  Uiso   1.00
C462   C     0.85658   0.41784   0.25328   0.00000  Uiso   1.00
C463   C     0.83554   0.43426   0.34782   0.00000  Uiso   1.00
C464   C     0.81176   0.44368   0.24066   0.00000  Uiso   1.00
C465   C     0.76910   0.46413   0.13133   0.00000  Uiso   1.00
C466   C     0.88338   0.37248   0.30551   0.00000  Uiso   1.00
C467   C     0.88487   0.35077   0.44396   0.00000  Uiso   1.00
C468   C     0.88366   0.32200   0.38074   0.00000  Uiso   1.00
C469   C     0.88262   0.27203   0.35249   0.00000  Uiso   1.00
C470   C     0.90967   0.41711   0.22392   0.00000  Uiso   1.00
C471   C     0.93328   0.43293   0.29377   0.00000  Uiso   1.00
C472   C     0.95421   0.44174   0.16188   0.00000  Uiso   1.00
C473   C     0.99400   0.46106   0.00695   0.00000  Uiso   1.00
C474   C     0.87950   0.39285   0.98435   0.00000  Uiso   1.00
C475   C     0.85397   0.41106   0.05860   0.00000  Uiso   1.00
C476   C     0.83023   0.42046   0.95126   0.00000  Uiso   1.00
C477   C     0.80915   0.43689   0.04562   0.00000  Uiso   1.00
C478   C     0.88077   0.36570   0.11083   0.00000  Uiso   1.00
C479   C     0.87956   0.33696   0.04740   0.00000  Uiso   1.00
C480   C     0.88105   0.31521   0.18571   0.00000  Uiso   1.00
C481   C     0.90706   0.41034   0.02923   0.00000  Uiso   1.00
C482   C     0.92797   0.41912   0.89721   0.00000  Uiso   1.00
C483   C     0.95160   0.43494   0.96684   0.00000  Uiso   1.00
H484   H     0.88634   0.41060   0.49435   0.00000  Uiso   1.00
H485   H     0.83756   0.43950   0.49849   0.00000  Uiso   1.00
H486   H     0.88689   0.35602   0.59460   0.00000  Uiso   1.00
H487   H     0.93529   0.43817   0.44444   0.00000  Uiso   1.00
H488   H     0.78233   0.46854   0.41724   0.00000  Uiso   1.00
H489   H     0.88636   0.29252   0.61990   0.00000  Uiso   1.00
H490   H     0.98841   0.46574   0.30325   0.00000  Uiso   1.00
H491   H     0.87747   0.38757   0.83277   0.00000  Uiso   1.00
H492   H     0.82821   0.41521   0.80060   0.00000  Uiso   1.00
H493   H     0.87754   0.33173   0.89672   0.00000  Uiso   1.00
H494   H     0.92594   0.41387   0.74656   0.00000  Uiso   1.00
H495   H     0.77474   0.44882   0.85081   0.00000  Uiso   1.00
H496   H     0.87877   0.27280   0.05347   0.00000  Uiso   1.00
H497   H     0.98083   0.44602   0.73682   0.00000  Uiso   1.00
O498   O     0.74629   0.47727   0.12482   0.00000  Uiso   1.00
O499   O     0.88277   0.24633   0.39070   0.00000  Uiso   1.00
O500   O     0.01666   0.47360   0.97526   0.00000  Uiso   1.00
N501   N     0.78731   0.46011   0.28834   0.00000  Uiso   1.00
N502   N     0.88456   0.29554   0.47781   0.00000  Uiso   1.00
N503   N     0.97998   0.45748   0.18178   0.00000  Uiso   1.00
N504   N     0.78323   0.44950   0.98354   0.00000  Uiso   1.00
N505   N     0.88048   0.28493   0.17302   0.00000  Uiso   1.00
N506   N     0.97590   0.44687   0.87699   0.00000  Uiso   1.00
C507   C     0.38430   0.90533   0.84278   0.00000  Uiso   1.00
C508   C     0.35658   0.91784   0.75328   0.00000  Uiso   1.00
C509   C     0.33554   0.93426   0.84782   0.00000  Uiso   1.00
C510   C     0.31176   0.94368   0.74066   0.00000  Uiso   1.00
C511   C     0.26910   0.96413   0.63133   0.00000  Uiso   1.00
C512   C     0.38338   0.87248   0.80551   0.00000  Uiso   1.00
C513   C     0.38487   0.85077   0.94396   0.00000  Uiso   1.00
C514   C     0.38366   0.82200   0.88074   0.00000  Uiso   1.00
C515   C     0.38262   0.77203   0.85249   0.00000  Uiso   1.00
C516   C     0.40967   0.91711   0.72392   0.00000  Uiso   1.00
C517   C     0.43328   0.93293   0.79377   0.00000  Uiso   1.00
C518   C     0.45421   0.94174   0.66188   0.00000  Uiso   1.00
C519   C     0.49400   0.96106   0.50695   0.00000  Uiso   1.00
C520   C     0.37950   0.89285   0.48435   0.00000  Uiso   1.00
C521   C     0.35397   0.91106   0.55860   0.00000  Uiso   1.00
C522   C     0.33023   0.92046   0.45126   0.00000  Uiso   1.00
C523   C     0.30915   0.93689   0.54562   0.00000  Uiso   1.00
C524   C     0.38077   0.86570   0.61083   0.00000  Uiso   1.00
C525   C     0.37956   0.83696   0.54740   0.00000  Uiso   1.00
C526   C     0.38105   0.81521   0.68571   0.00000  Uiso   1.00
C527   C     0.40706   0.91034   0.52923   0.00000  Uiso   1.00
C528   C     0.42797   0.91912   0.39721   0.00000  Uiso   1.00
C529   C     0.45160   0.93494   0.46684   0.00000  Uiso   1.00
H530   H     0.38634   0.91060   0.99435   0.00000  Uiso   1.00
H531   H     0.33756   0.93950   0.99849   0.00000  Uiso   1.00
H532   H     0.38689   0.85602   0.09460   0.00000  Uiso   1.00
H533   H     0.43529   0.93817   0.94444   0.00000  Uiso   1.00
H534   H     0.28233   0.96854   0.91724   0.00000  Uiso   1.00
H535   H     0.38636   0.79252   0.11990   0.00000  Uiso   1.00
H536   H     0.48841   0.96574   0.80325   0.00000  Uiso   1.00
H537   H     0.37747   0.88757   0.33277   0.00000  Uiso   1.00
H538   H     0.32821   0.91521   0.30060   0.00000  Uiso   1.00
H539   H     0.37754   0.83173   0.39672   0.00000  Uiso   1.00
H540   H     0.42594   0.91387   0.24656   0.00000  Uiso   1.00
H541   H     0.27474   0.94882   0.35081   0.00000  Uiso   1.00
H542   H     0.37877   0.77280   0.55347   0.00000  Uiso   1.00
H543   H     0.48083   0.94602   0.23682   0.00000  Uiso   1.00
O544   O     0.24629   0.97727   0.62482   0.00000  Uiso   1.00
O545   O     0.38277   0.74633   0.89070   0.00000  Uiso   1.00
O546   O     0.51666   0.97360   0.47526   0.00000  Uiso   1.00
N547   N     0.28731   0.96011   0.78834   0.00000  Uiso   1.00
N548   N     0.38456   0.79554   0.97781   0.00000  Uiso   1.00
N549   N     0.47998   0.95748   0.68178   0.00000  Uiso   1.00
N550   N     0.28323   0.94950   0.48354   0.00000  Uiso   1.00
N551   N     0.38048   0.78493   0.67302   0.00000  Uiso   1.00
N552   N     0.47590   0.94687   0.37699   0.00000  Uiso   1.00
C553   C     0.90533   0.61570   0.15722   0.00000  Uiso   1.00
C554   C     0.91784   0.64342   0.24672   0.00000  Uiso   1.00
C555   C     0.93426   0.66446   0.15218   0.00000  Uiso   1.00
C556   C     0.94368   0.68824   0.25934   0.00000  Uiso   1.00
C557   C     0.96413   0.73090   0.36867   0.00000  Uiso   1.00
C558   C     0.87248   0.61662   0.19449   0.00000  Uiso   1.00
C559   C     0.85077   0.61513   0.05604   0.00000  Uiso   1.00
C560   C     0.82200   0.61634   0.11926   0.00000  Uiso   1.00
C561   C     0.77203   0.61738   0.14751   0.00000  Uiso   1.00
C562   C     0.91711   0.59033   0.27608   0.00000  Uiso   1.00
C563   C     0.93293   0.56672   0.20623   0.00000  Uiso   1.00
C564   C     0.94174   0.54579   0.33812   0.00000  Uiso   1.00
C565   C     0.96106   0.50600   0.49305   0.00000  Uiso   1.00
C566   C     0.89285   0.62050   0.51565   0.00000  Uiso   1.00
C567   C     0.91106   0.64603   0.44140   0.00000  Uiso   1.00
C568   C     0.92046   0.66977   0.54874   0.00000  Uiso   1.00
C569   C     0.93689   0.69085   0.45438   0.00000  Uiso   1.00
C570   C     0.86570   0.61923   0.38917   0.00000  Uiso   1.00
C571   C     0.83696   0.62044   0.45260   0.00000  Uiso   1.00
C572   C     0.81521   0.61895   0.31429   0.00000  Uiso   1.00
C573   C     0.91034   0.59294   0.47077   0.00000  Uiso   1.00
C574   C     0.91912   0.57203   0.60279   0.00000  Uiso   1.00
C575   C     0.93494   0.54840   0.53316   0.00000  Uiso   1.00
H576   H     0.91060   0.61366   0.00565   0.00000  Uiso   1.00
H577   H     0.93950   0.66244   0.00151   0.00000  Uiso   1.00
H578   H     0.85602   0.61311   0.90540   0.00000  Uiso   1.00
H579   H     0.93817   0.56471   0.05556   0.00000  Uiso   1.00
H580   H     0.96854   0.71767   0.08276   0.00000  Uiso   1.00
H581   H     0.79252   0.61364   0.88010   0.00000  Uiso   1.00
H582   H     0.96574   0.51159   0.19675   0.00000  Uiso   1.00
H583   H     0.88757   0.62253   0.66723   0.00000  Uiso   1.00
H584   H     0.91521   0.67179   0.69940   0.00000  Uiso   1.00
H585   H     0.83173   0.62246   0.60328   0.00000  Uiso   1.00
H586   H     0.91387   0.57406   0.75344   0.00000  Uiso   1.00
H587   H     0.94882   0.72526   0.64919   0.00000  Uiso   1.00
H588   H     0.77280   0.62123   0.44653   0.00000  Uiso   1.00
H589   H     0.94602   0.51917   0.76318   0.00000  Uiso   1.00
O590   O     0.97727   0.75371   0.37518   0.00000  Uiso   1.00
O591   O     0.74633   0.61723   0.10930   0.00000  Uiso   1.00
O592   O     0.97360   0.48334   0.52474   0.00000  Uiso   1.00
N593   N     0.96011   0.71269   0.21166   0.00000  Uiso   1.00
N594   N     0.79554   0.61544   0.02219   0.00000  Uiso   1.00
N595   N     0.95748   0.52002   0.31822   0.00000  Uiso   1.00
N596   N     0.94950   0.71677   0.51646   0.00000  Uiso   1.00
N597   N     0.78493   0.61952   0.32698   0.00000  Uiso   1.00
N598   N     0.94687   0.52410   0.62301   0.00000  Uiso   1.00
C599   C     0.40533   0.11570   0.65722   0.00000  Uiso   1.00
C600   C     0.41784   0.14342   0.74672   0.00000  Uiso   1.00
C601   C     0.43426   0.16446   0.65218   0.00000  Uiso   1.00
C602   C     0.44368   0.18824   0.75934   0.00000  Uiso   1.00
C603   C     0.46413   0.23090   0.86867   0.00000  Uiso   1.00
C604   C     0.37248   0.11662   0.69449   0.00000  Uiso   1.00
C605   C     0.35077   0.11513   0.55604   0.00000  Uiso   1.00
C606   C     0.32200   0.11634   0.61926   0.00000  Uiso   1.00
C607   C     0.27203   0.11738   0.64751   0.00000  Uiso   1.00
C608   C     0.41711   0.09033   0.77608   0.00000  Uiso   1.00
C609   C     0.43293   0.06672   0.70623   0.00000  Uiso   1.00
C610   C     0.44174   0.04579   0.83812   0.00000  Uiso   1.00
C611   C     0.46106   0.00600   0.99305   0.00000  Uiso   1.00
C612   C     0.39285   0.12050   0.01565   0.00000  Uiso   1.00
C613   C     0.41106   0.14603   0.94140   0.00000  Uiso   1.00
C614   C     0.42046   0.16977   0.04874   0.00000  Uiso   1.00
C615   C     0.43689   0.19085   0.95438   0.00000  Uiso   1.00
C616   C     0.36570   0.11923   0.88917   0.00000  Uiso   1.00
C617   C     0.33696   0.12044   0.95260   0.00000  Uiso   1.00
C618   C     0.31521   0.11895   0.81429   0.00000  Uiso   1.00
C619   C     0.41034   0.09294   0.97077   0.00000  Uiso   1.00
C620   C     0.41912   0.07203   0.10279   0.00000  Uiso   1.00
C621   C     0.43494   0.04840   0.03316   0.00000  Uiso   1.00
H622   H     0.41060   0.11366   0.50565   0.00000  Uiso   1.00
H623   H     0.43950   0.16244   0.50151   0.00000  Uiso   1.00
H624   H     0.35602   0.11311   0.40540   0.00000  Uiso   1.00
H625   H     0.43817   0.06471   0.55556   0.00000  Uiso   1.00
H626   H     0.46854   0.21767   0.58276   0.00000  Uiso   1.00
H627   H     0.29252   0.11364   0.38010   0.00000  Uiso   1.00
H628   H     0.46574   0.01159   0.69675   0.00000  Uiso   1.00
H629   H     0.38757   0.12253   0.16723   0.00000  Uiso   1.00
H630   H     0.41521   0.17179   0.19940   0.00000  Uiso   1.00
H631   H     0.33173   0.12246   0.10328   0.00000  Uiso   1.00
H632   H     0.41387   0.07406   0.25344   0.00000  Uiso   1.00
H633   H     0.44882   0.22526   0.14919   0.00000  Uiso   1.00
H634   H     0.27280   0.12123   0.94653   0.00000  Uiso   1.00
H635   H     0.44602   0.01917   0.26318   0.00000  Uiso   1.00
O636   O     0.47727   0.25371   0.87518   0.00000  Uiso   1.00
O637   O     0.24633   0.11723   0.60930   0.00000  Uiso   1.00
O638   O     0.47360   0.98334   0.02474   0.00000  Uiso   1.00
N639   N     0.46011   0.21269   0.71166   0.00000  Uiso   1.00
N640   N     0.29554   0.11544   0.52219   0.00000  Uiso   1.00
N641   N     0.45748   0.02002   0.81822   0.00000  Uiso   1.00
N642   N     0.44950   0.21677   0.01646   0.00000  Uiso   1.00
N643   N     0.28493   0.11952   0.82698   0.00000  Uiso   1.00
N644   N     0.44687   0.02410   0.12301   0.00000  Uiso   1.00
C645   C     0.09467   0.38430   0.15722   0.00000  Uiso   1.00
C646   C     0.08216   0.35658   0.24672   0.00000  Uiso   1.00
C647   C     0.06574   0.33554   0.15218   0.00000  Uiso   1.00
C648   C     0.05632   0.31176   0.25934   0.00000  Uiso   1.00
C649   C     0.03587   0.26910   0.36867   0.00000  Uiso   1.00
C650   C     0.12752   0.38338   0.19449   0.00000  Uiso   1.00
C651   C     0.14923   0.38487   0.05604   0.00000  Uiso   1.00
C652   C     0.17800   0.38366   0.11926   0.00000  Uiso   1.00
C653   C     0.22797   0.38262   0.14751   0.00000  Uiso   1.00
C654   C     0.08289   0.40967   0.27608   0.00000  Uiso   1.00
C655   C     0.06707   0.43328   0.20623   0.00000  Uiso   1.00
C656   C     0.05826   0.45421   0.33812   0.00000  Uiso   1.00
C657   C     0.03894   0.49400   0.49305   0.00000  Uiso   1.00
C658   C     0.10715   0.37950   0.51565   0.00000  Uiso   1.00
C659   C     0.08894   0.35397   0.44140   0.00000  Uiso   1.00
C660   C     0.07954   0.33023   0.54874   0.00000  Uiso   1.00
C661   C     0.06311   0.30915   0.45438   0.00000  Uiso   1.00
C662   C     0.13430   0.38077   0.38917   0.00000  Uiso   1.00
C663   C     0.16304   0.37956   0.45260   0.00000  Uiso   1.00
C664   C     0.18479   0.38105   0.31429   0.00000  Uiso   1.00
C665   C     0.08966   0.40706   0.47077   0.00000  Uiso   1.00
C666   C     0.08088   0.42797   0.60279   0.00000  Uiso   1.00
C667   C     0.06506   0.45160   0.53316   0.00000  Uiso   1.00
H668   H     0.08940   0.38634   0.00565   0.00000  Uiso   1.00
H669   H     0.06050   0.33756   0.00151   0.00000  Uiso   1.00
H670   H     0.14398   0.38689   0.90540   0.00000  Uiso   1.00
H671   H     0.06183   0.43529   0.05556   0.00000  Uiso   1.00
H672   H     0.03146   0.28233   0.08276   0.00000  Uiso   1.00
H673   H     0.20748   0.38636   0.88010   0.00000  Uiso   1.00
H674   H     0.03426   0.48841   0.19675   0.00000  Uiso   1.00
H675   H     0.11243   0.37747   0.66723   0.00000  Uiso   1.00
H676   H     0.08479   0.32821   0.69940   0.00000  Uiso   1.00
H677   H     0.16827   0.37754   0.60328   0.00000  Uiso   1.00
H678   H     0.08613   0.42594   0.75344   0.00000  Uiso   1.00
H679   H     0.05118   0.27474   0.64919   0.00000  Uiso   1.00
H680   H     0.22720   0.37877   0.44653   0.00000  Uiso   1.00
H681   H     0.05398   0.48083   0.76318   0.00000  Uiso   1.00
O682   O     0.02273   0.24629   0.37518   0.00000  Uiso   1.00
O683   O     0.25367   0.38277   0.10930   0.00000  Uiso   1.00
O684   O     0.02640   0.51666   0.52474   0.00000  Uiso   1.00
N685   N     0.03989   0.28731   0.21166   0.00000  Uiso   1.00
N686   N     0.20446   0.38456   0.02219   0.00000  Uiso   1.00
N687   N     0.04252   0.47998   0.31822   0.00000  Uiso   1.00
N688   N     0.05050   0.28323   0.51646   0.00000  Uiso   1.00
N689   N     0.21507   0.38048   0.32698   0.00000  Uiso   1.00
N690   N     0.05313   0.47590   0.62301   0.00000  Uiso   1.00
C691   C     0.59467   0.88430   0.65722   0.00000  Uiso   1.00
C692   C     0.58216   0.85658   0.74672   0.00000  Uiso   1.00
C693   C     0.56574   0.83554   0.65218   0.00000  Uiso   1.00
C694   C     0.55632   0.81176   0.75934   0.00000  Uiso   1.00
C695   C     0.53587   0.76910   0.86867   0.00000  Uiso   1.00
C696   C     0.62752   0.88338   0.69449   0.00000  Uiso   1.00
C697   C     0.64923   0.88487   0.55604   0.00000  Uiso   1.00
C698   C     0.67800   0.88366   0.61926   0.00000  Uiso   1.00
C699   C     0.72797   0.88262   0.64751   0.00000  Uiso   1.00
C700   C     0.58289   0.90967   0.77608   0.00000  Uiso   1.00
C701   C     0.56707   0.93328   0.70623   0.00000  Uiso   1.00
C702   C     0.55826   0.95421   0.83812   0.00000  Uiso   1.00
C703   C     0.53894   0.99400   0.99305   0.00000  Uiso   1.00
C704   C     0.60715   0.87950   0.01565   0.00000  Uiso   1.00
C705   C     0.58894   0.85397   0.94140   0.00000  Uiso   1.00
C706   C     0.57954   0.83023   0.04874   0.00000  Uiso   1.00
C707   C     0.56311   0.80915   0.95438   0.00000  Uiso   1.00
C708   C     0.63430   0.88077   0.88917   0.00000  Uiso   1.00
C709   C     0.66304   0.87956   0.95260   0.00000  Uiso   1.00
C710   C     0.68479   0.88105   0.81429   0.00000  Uiso   1.00
C711   C     0.58966   0.90706   0.97077   0.00000  Uiso   1.00
C712   C     0.58088   0.92797   0.10279   0.00000  Uiso   1.00
C713   C     0.56506   0.95160   0.03316   0.00000  Uiso   1.00
H714   H     0.58940   0.88634   0.50565   0.00000  Uiso   1.00
H715   H     0.56050   0.83756   0.50151   0.00000  Uiso   1.00
H716   H     0.64398   0.88689   0.40540   0.00000  Uiso   1.00
H717   H     0.56183   0.93529   0.55556   0.00000  Uiso   1.00
H718   H     0.53146   0.78233   0.58276   0.00000  Uiso   1.00
H719   H     0.70748   0.88636   0.38010   0.00000  Uiso   1.00
H720   H     0.53426   0.98841   0.69675   0.00000  Uiso   1.00
H721   H     0.61243   0.87747   0.16723   0.00000  Uiso   1.00
H722   H     0.58479   0.82821   0.19940   0.00000  Uiso   1.00
H723   H     0.66827   0.87754   0.10328   0.00000  Uiso   1.00
H724   H     0.58613   0.92594   0.25344   0.00000  Uiso   1.00
H725   H     0.55118   0.77474   0.14919   0.00000  Uiso   1.00
H726   H     0.72720   0.87877   0.94653   0.00000  Uiso   1.00
H727   H     0.55398   0.98083   0.26318   0.00000  Uiso   1.00
O728   O     0.52273   0.74629   0.87518   0.00000  Uiso   1.00
O729   O     0.75367   0.88277   0.60930   0.00000  Uiso   1.00
O730   O     0.52640   0.01666   0.02474   0.00000  Uiso   1.00
N731   N     0.53989   0.78731   0.71166   0.00000  Uiso   1.00
N732   N     0.70446   0.88456   0.52219   0.00000  Uiso   1.00
N733   N     0.54252   0.97998   0.81822   0.00000  Uiso   1.00
N734   N     0.55050   0.78323   0.01646   0.00000  Uiso   1.00
N735   N     0.71507   0.88048   0.82698   0.00000  Uiso   1.00
N736   N     0.55313   0.97590   0.12301   0.00000  Uiso   1.00
