data_job_00093
_audit_creation_date              2018-12-19
_audit_creation_method            'Materials Studio'
_symmetry_space_group_name_H-M    'P1'
_symmetry_Int_Tables_number       1
_symmetry_cell_setting            triclinic
loop_
_symmetry_equiv_pos_as_xyz
  x,y,z
_cell_length_a                    53.3230
_cell_length_b                    23.7109
_cell_length_c                    7.1855
_cell_angle_alpha                 90.0000
_cell_angle_beta                  90.0000
_cell_angle_gamma                 90.0000
loop_
_atom_site_label
_atom_site_type_symbol
_atom_site_fract_x
_atom_site_fract_y
_atom_site_fract_z
_atom_site_U_iso_or_equiv
_atom_site_adp_type
_atom_site_occupancy
C1     C     0.56407   0.36018   0.24351   0.00000  Uiso   1.00
C2     C     0.55532   0.41398   0.14710   0.00000  Uiso   1.00
C3     C     0.54340   0.45911   0.23260   0.00000  Uiso   1.00
C4     C     0.53688   0.50442   0.12020   0.00000  Uiso   1.00
C5     C     0.52249   0.58794   0.99954   0.00000  Uiso   1.00
C6     C     0.55146   0.31162   0.14053   0.00000  Uiso   1.00
C7     C     0.53630   0.27068   0.22052   0.00000  Uiso   1.00
C8     C     0.52653   0.22982   0.10258   0.00000  Uiso   1.00
C9     C     0.50616   0.15439   0.97174   0.00000  Uiso   1.00
C10    C     0.59202   0.35508   0.20192   0.00000  Uiso   1.00
C11    C     0.61097   0.35067   0.33351   0.00000  Uiso   1.00
C12    C     0.63536   0.34639   0.26726   0.00000  Uiso   1.00
C13    C     0.67796   0.33845   0.23173   0.00000  Uiso   1.00
C14    C     0.57368   0.36041   0.89185   0.00000  Uiso   1.00
C15    C     0.56054   0.41411   0.95609   0.00000  Uiso   1.00
C16    C     0.55404   0.45937   0.84353   0.00000  Uiso   1.00
C17    C     0.54212   0.50455   0.92885   0.00000  Uiso   1.00
C18    C     0.55668   0.31175   0.94953   0.00000  Uiso   1.00
C19    C     0.54694   0.27094   0.83145   0.00000  Uiso   1.00
C20    C     0.53176   0.22995   0.91123   0.00000  Uiso   1.00
C21    C     0.59724   0.35521   0.01091   0.00000  Uiso   1.00
C22    C     0.62161   0.35094   0.94444   0.00000  Uiso   1.00
C23    C     0.64059   0.34652   0.07591   0.00000  Uiso   1.00
H24    H     0.56001   0.36007   0.39221   0.00000  Uiso   1.00
H25    H     0.53936   0.45899   0.38042   0.00000  Uiso   1.00
H26    H     0.53227   0.27059   0.36833   0.00000  Uiso   1.00
H27    H     0.60692   0.35057   0.48131   0.00000  Uiso   1.00
H28    H     0.51877   0.56870   0.28309   0.00000  Uiso   1.00
H29    H     0.50381   0.17143   0.25763   0.00000  Uiso   1.00
H30    H     0.66124   0.34010   0.49586   0.00000  Uiso   1.00
H31    H     0.57775   0.36051   0.74314   0.00000  Uiso   1.00
H32    H     0.55808   0.45946   0.69572   0.00000  Uiso   1.00
H33    H     0.55098   0.27105   0.68365   0.00000  Uiso   1.00
H34    H     0.62564   0.35104   0.79662   0.00000  Uiso   1.00
H35    H     0.53396   0.56908   0.72737   0.00000  Uiso   1.00
H36    H     0.51900   0.17181   0.70191   0.00000  Uiso   1.00
H37    H     0.67643   0.34047   0.94014   0.00000  Uiso   1.00
O38    O     0.51310   0.63397   0.98574   0.00000  Uiso   1.00
O39    O     0.49348   0.11276   0.95234   0.00000  Uiso   1.00
O40    O     0.70002   0.33404   0.26490   0.00000  Uiso   1.00
N41    N     0.52505   0.55522   0.15882   0.00000  Uiso   1.00
N42    N     0.51106   0.18380   0.13500   0.00000  Uiso   1.00
N43    N     0.65825   0.34147   0.35773   0.00000  Uiso   1.00
N44    N     0.53323   0.55542   0.85979   0.00000  Uiso   1.00
N45    N     0.51923   0.18400   0.83597   0.00000  Uiso   1.00
N46    N     0.66642   0.34167   0.05871   0.00000  Uiso   1.00
C47    C     0.56407   0.86018   0.74351   0.00000  Uiso   1.00
C48    C     0.55532   0.91398   0.64710   0.00000  Uiso   1.00
C49    C     0.54340   0.95911   0.73260   0.00000  Uiso   1.00
C50    C     0.53688   0.00442   0.62020   0.00000  Uiso   1.00
C51    C     0.52249   0.08794   0.49954   0.00000  Uiso   1.00
C52    C     0.55146   0.81162   0.64053   0.00000  Uiso   1.00
C53    C     0.53630   0.77068   0.72052   0.00000  Uiso   1.00
C54    C     0.52653   0.72982   0.60258   0.00000  Uiso   1.00
C55    C     0.50616   0.65439   0.47174   0.00000  Uiso   1.00
C56    C     0.59202   0.85508   0.70192   0.00000  Uiso   1.00
C57    C     0.61097   0.85067   0.83351   0.00000  Uiso   1.00
C58    C     0.63536   0.84639   0.76726   0.00000  Uiso   1.00
C59    C     0.67796   0.83845   0.73173   0.00000  Uiso   1.00
C60    C     0.57368   0.86041   0.39185   0.00000  Uiso   1.00
C61    C     0.56054   0.91411   0.45609   0.00000  Uiso   1.00
C62    C     0.55404   0.95937   0.34353   0.00000  Uiso   1.00
C63    C     0.54212   0.00455   0.42885   0.00000  Uiso   1.00
C64    C     0.55668   0.81175   0.44953   0.00000  Uiso   1.00
C65    C     0.54694   0.77094   0.33145   0.00000  Uiso   1.00
C66    C     0.53176   0.72995   0.41123   0.00000  Uiso   1.00
C67    C     0.59724   0.85521   0.51091   0.00000  Uiso   1.00
C68    C     0.62161   0.85094   0.44444   0.00000  Uiso   1.00
C69    C     0.64059   0.84652   0.57591   0.00000  Uiso   1.00
H70    H     0.56001   0.86007   0.89221   0.00000  Uiso   1.00
H71    H     0.53936   0.95899   0.88042   0.00000  Uiso   1.00
H72    H     0.53227   0.77059   0.86833   0.00000  Uiso   1.00
H73    H     0.60692   0.85057   0.98131   0.00000  Uiso   1.00
H74    H     0.51877   0.06870   0.78309   0.00000  Uiso   1.00
H75    H     0.50381   0.67143   0.75763   0.00000  Uiso   1.00
H76    H     0.66124   0.84010   0.99586   0.00000  Uiso   1.00
H77    H     0.57775   0.86051   0.24314   0.00000  Uiso   1.00
H78    H     0.55808   0.95946   0.19572   0.00000  Uiso   1.00
H79    H     0.55098   0.77105   0.18365   0.00000  Uiso   1.00
H80    H     0.62564   0.85104   0.29662   0.00000  Uiso   1.00
H81    H     0.53396   0.06908   0.22737   0.00000  Uiso   1.00
H82    H     0.51900   0.67181   0.20191   0.00000  Uiso   1.00
H83    H     0.67643   0.84047   0.44014   0.00000  Uiso   1.00
O84    O     0.51310   0.13397   0.48574   0.00000  Uiso   1.00
O85    O     0.49348   0.61276   0.45234   0.00000  Uiso   1.00
O86    O     0.70002   0.83404   0.76490   0.00000  Uiso   1.00
N87    N     0.52505   0.05522   0.65882   0.00000  Uiso   1.00
N88    N     0.51106   0.68380   0.63500   0.00000  Uiso   1.00
N89    N     0.65825   0.84147   0.85773   0.00000  Uiso   1.00
N90    N     0.53323   0.05542   0.35979   0.00000  Uiso   1.00
N91    N     0.51923   0.68400   0.33597   0.00000  Uiso   1.00
N92    N     0.66642   0.84167   0.55871   0.00000  Uiso   1.00
C93    C     0.06407   0.36018   0.74351   0.00000  Uiso   1.00
C94    C     0.05532   0.41398   0.64710   0.00000  Uiso   1.00
C95    C     0.04340   0.45911   0.73260   0.00000  Uiso   1.00
C96    C     0.03688   0.50442   0.62020   0.00000  Uiso   1.00
C97    C     0.02249   0.58794   0.49954   0.00000  Uiso   1.00
C98    C     0.05146   0.31162   0.64053   0.00000  Uiso   1.00
C99    C     0.03630   0.27068   0.72052   0.00000  Uiso   1.00
C100   C     0.02653   0.22982   0.60258   0.00000  Uiso   1.00
C101   C     0.00616   0.15439   0.47174   0.00000  Uiso   1.00
C102   C     0.09202   0.35508   0.70192   0.00000  Uiso   1.00
C103   C     0.11097   0.35067   0.83351   0.00000  Uiso   1.00
C104   C     0.13536   0.34639   0.76726   0.00000  Uiso   1.00
C105   C     0.17796   0.33845   0.73173   0.00000  Uiso   1.00
C106   C     0.07368   0.36041   0.39185   0.00000  Uiso   1.00
C107   C     0.06054   0.41411   0.45609   0.00000  Uiso   1.00
C108   C     0.05404   0.45937   0.34353   0.00000  Uiso   1.00
C109   C     0.04212   0.50455   0.42885   0.00000  Uiso   1.00
C110   C     0.05668   0.31175   0.44953   0.00000  Uiso   1.00
C111   C     0.04694   0.27094   0.33145   0.00000  Uiso   1.00
C112   C     0.03176   0.22995   0.41123   0.00000  Uiso   1.00
C113   C     0.09724   0.35521   0.51091   0.00000  Uiso   1.00
C114   C     0.12161   0.35094   0.44444   0.00000  Uiso   1.00
C115   C     0.14059   0.34652   0.57591   0.00000  Uiso   1.00
H116   H     0.06001   0.36007   0.89221   0.00000  Uiso   1.00
H117   H     0.03936   0.45899   0.88042   0.00000  Uiso   1.00
H118   H     0.03227   0.27059   0.86833   0.00000  Uiso   1.00
H119   H     0.10692   0.35057   0.98131   0.00000  Uiso   1.00
H120   H     0.01877   0.56870   0.78309   0.00000  Uiso   1.00
H121   H     0.00381   0.17143   0.75763   0.00000  Uiso   1.00
H122   H     0.16124   0.34010   0.99586   0.00000  Uiso   1.00
H123   H     0.07775   0.36051   0.24314   0.00000  Uiso   1.00
H124   H     0.05808   0.45946   0.19572   0.00000  Uiso   1.00
H125   H     0.05098   0.27105   0.18365   0.00000  Uiso   1.00
H126   H     0.12564   0.35104   0.29662   0.00000  Uiso   1.00
H127   H     0.03396   0.56908   0.22737   0.00000  Uiso   1.00
H128   H     0.01900   0.17181   0.20191   0.00000  Uiso   1.00
H129   H     0.17643   0.34047   0.44014   0.00000  Uiso   1.00
O130   O     0.01310   0.63397   0.48574   0.00000  Uiso   1.00
O131   O     0.99348   0.11276   0.45234   0.00000  Uiso   1.00
O132   O     0.20002   0.33404   0.76490   0.00000  Uiso   1.00
N133   N     0.02505   0.55522   0.65882   0.00000  Uiso   1.00
N134   N     0.01106   0.18380   0.63500   0.00000  Uiso   1.00
N135   N     0.15825   0.34147   0.85773   0.00000  Uiso   1.00
N136   N     0.03323   0.55542   0.35979   0.00000  Uiso   1.00
N137   N     0.01923   0.18400   0.33597   0.00000  Uiso   1.00
N138   N     0.16642   0.34167   0.55871   0.00000  Uiso   1.00
C139   C     0.06407   0.86018   0.24351   0.00000  Uiso   1.00
C140   C     0.05532   0.91398   0.14710   0.00000  Uiso   1.00
C141   C     0.04340   0.95911   0.23260   0.00000  Uiso   1.00
C142   C     0.03688   0.00442   0.12020   0.00000  Uiso   1.00
C143   C     0.02249   0.08794   0.99954   0.00000  Uiso   1.00
C144   C     0.05146   0.81162   0.14053   0.00000  Uiso   1.00
C145   C     0.03630   0.77068   0.22052   0.00000  Uiso   1.00
C146   C     0.02653   0.72982   0.10258   0.00000  Uiso   1.00
C147   C     0.00616   0.65439   0.97174   0.00000  Uiso   1.00
C148   C     0.09202   0.85508   0.20192   0.00000  Uiso   1.00
C149   C     0.11097   0.85067   0.33351   0.00000  Uiso   1.00
C150   C     0.13536   0.84639   0.26726   0.00000  Uiso   1.00
C151   C     0.17796   0.83845   0.23173   0.00000  Uiso   1.00
C152   C     0.07368   0.86041   0.89185   0.00000  Uiso   1.00
C153   C     0.06054   0.91411   0.95609   0.00000  Uiso   1.00
C154   C     0.05404   0.95937   0.84353   0.00000  Uiso   1.00
C155   C     0.04212   0.00455   0.92885   0.00000  Uiso   1.00
C156   C     0.05668   0.81175   0.94953   0.00000  Uiso   1.00
C157   C     0.04694   0.77094   0.83145   0.00000  Uiso   1.00
C158   C     0.03176   0.72995   0.91123   0.00000  Uiso   1.00
C159   C     0.09724   0.85521   0.01091   0.00000  Uiso   1.00
C160   C     0.12161   0.85094   0.94444   0.00000  Uiso   1.00
C161   C     0.14059   0.84652   0.07591   0.00000  Uiso   1.00
H162   H     0.06001   0.86007   0.39221   0.00000  Uiso   1.00
H163   H     0.03936   0.95899   0.38042   0.00000  Uiso   1.00
H164   H     0.03227   0.77059   0.36833   0.00000  Uiso   1.00
H165   H     0.10692   0.85057   0.48131   0.00000  Uiso   1.00
H166   H     0.01877   0.06870   0.28309   0.00000  Uiso   1.00
H167   H     0.00381   0.67143   0.25763   0.00000  Uiso   1.00
H168   H     0.16124   0.84010   0.49586   0.00000  Uiso   1.00
H169   H     0.07775   0.86051   0.74314   0.00000  Uiso   1.00
H170   H     0.05808   0.95946   0.69572   0.00000  Uiso   1.00
H171   H     0.05098   0.77105   0.68365   0.00000  Uiso   1.00
H172   H     0.12564   0.85104   0.79662   0.00000  Uiso   1.00
H173   H     0.03396   0.06908   0.72737   0.00000  Uiso   1.00
H174   H     0.01900   0.67181   0.70191   0.00000  Uiso   1.00
H175   H     0.17643   0.84047   0.94014   0.00000  Uiso   1.00
O176   O     0.01310   0.13397   0.98574   0.00000  Uiso   1.00
O177   O     0.99348   0.61276   0.95234   0.00000  Uiso   1.00
O178   O     0.20002   0.83404   0.26490   0.00000  Uiso   1.00
N179   N     0.02505   0.05522   0.15882   0.00000  Uiso   1.00
N180   N     0.01106   0.68380   0.13500   0.00000  Uiso   1.00
N181   N     0.15825   0.84147   0.35773   0.00000  Uiso   1.00
N182   N     0.03323   0.05542   0.85979   0.00000  Uiso   1.00
N183   N     0.01923   0.68400   0.83597   0.00000  Uiso   1.00
N184   N     0.16642   0.84167   0.05871   0.00000  Uiso   1.00
C185   C     0.43593   0.63982   0.24351   0.00000  Uiso   1.00
C186   C     0.44468   0.58602   0.14710   0.00000  Uiso   1.00
C187   C     0.45660   0.54089   0.23260   0.00000  Uiso   1.00
C188   C     0.46312   0.49558   0.12020   0.00000  Uiso   1.00
C189   C     0.47751   0.41206   0.99954   0.00000  Uiso   1.00
C190   C     0.44854   0.68838   0.14053   0.00000  Uiso   1.00
C191   C     0.46370   0.72932   0.22052   0.00000  Uiso   1.00
C192   C     0.47347   0.77018   0.10258   0.00000  Uiso   1.00
C193   C     0.49384   0.84561   0.97174   0.00000  Uiso   1.00
C194   C     0.40798   0.64492   0.20192   0.00000  Uiso   1.00
C195   C     0.38903   0.64933   0.33351   0.00000  Uiso   1.00
C196   C     0.36464   0.65361   0.26726   0.00000  Uiso   1.00
C197   C     0.32204   0.66155   0.23173   0.00000  Uiso   1.00
C198   C     0.42632   0.63959   0.89185   0.00000  Uiso   1.00
C199   C     0.43946   0.58589   0.95609   0.00000  Uiso   1.00
C200   C     0.44596   0.54063   0.84353   0.00000  Uiso   1.00
C201   C     0.45788   0.49545   0.92885   0.00000  Uiso   1.00
C202   C     0.44332   0.68825   0.94953   0.00000  Uiso   1.00
C203   C     0.45306   0.72906   0.83145   0.00000  Uiso   1.00
C204   C     0.46824   0.77005   0.91123   0.00000  Uiso   1.00
C205   C     0.40276   0.64479   0.01091   0.00000  Uiso   1.00
C206   C     0.37839   0.64906   0.94444   0.00000  Uiso   1.00
C207   C     0.35941   0.65348   0.07591   0.00000  Uiso   1.00
H208   H     0.43999   0.63993   0.39221   0.00000  Uiso   1.00
H209   H     0.46064   0.54101   0.38042   0.00000  Uiso   1.00
H210   H     0.46773   0.72941   0.36833   0.00000  Uiso   1.00
H211   H     0.39308   0.64943   0.48131   0.00000  Uiso   1.00
H212   H     0.48123   0.43130   0.28309   0.00000  Uiso   1.00
H213   H     0.49619   0.82857   0.25763   0.00000  Uiso   1.00
H214   H     0.33876   0.65990   0.49586   0.00000  Uiso   1.00
H215   H     0.42225   0.63949   0.74314   0.00000  Uiso   1.00
H216   H     0.44192   0.54054   0.69572   0.00000  Uiso   1.00
H217   H     0.44902   0.72895   0.68365   0.00000  Uiso   1.00
H218   H     0.37436   0.64896   0.79662   0.00000  Uiso   1.00
H219   H     0.46604   0.43092   0.72737   0.00000  Uiso   1.00
H220   H     0.48100   0.82819   0.70191   0.00000  Uiso   1.00
H221   H     0.32357   0.65953   0.94014   0.00000  Uiso   1.00
O222   O     0.48690   0.36603   0.98574   0.00000  Uiso   1.00
O223   O     0.50652   0.88724   0.95234   0.00000  Uiso   1.00
O224   O     0.29998   0.66596   0.26490   0.00000  Uiso   1.00
N225   N     0.47495   0.44478   0.15882   0.00000  Uiso   1.00
N226   N     0.48894   0.81620   0.13500   0.00000  Uiso   1.00
N227   N     0.34175   0.65853   0.35773   0.00000  Uiso   1.00
N228   N     0.46677   0.44458   0.85979   0.00000  Uiso   1.00
N229   N     0.48077   0.81600   0.83597   0.00000  Uiso   1.00
N230   N     0.33358   0.65833   0.05871   0.00000  Uiso   1.00
C231   C     0.43593   0.13982   0.74351   0.00000  Uiso   1.00
C232   C     0.44468   0.08602   0.64710   0.00000  Uiso   1.00
C233   C     0.45660   0.04089   0.73260   0.00000  Uiso   1.00
C234   C     0.46312   0.99558   0.62020   0.00000  Uiso   1.00
C235   C     0.47751   0.91206   0.49954   0.00000  Uiso   1.00
C236   C     0.44854   0.18838   0.64053   0.00000  Uiso   1.00
C237   C     0.46370   0.22932   0.72052   0.00000  Uiso   1.00
C238   C     0.47347   0.27018   0.60258   0.00000  Uiso   1.00
C239   C     0.49384   0.34561   0.47174   0.00000  Uiso   1.00
C240   C     0.40798   0.14492   0.70192   0.00000  Uiso   1.00
C241   C     0.38903   0.14933   0.83351   0.00000  Uiso   1.00
C242   C     0.36464   0.15361   0.76726   0.00000  Uiso   1.00
C243   C     0.32204   0.16155   0.73173   0.00000  Uiso   1.00
C244   C     0.42632   0.13959   0.39185   0.00000  Uiso   1.00
C245   C     0.43946   0.08589   0.45609   0.00000  Uiso   1.00
C246   C     0.44596   0.04063   0.34353   0.00000  Uiso   1.00
C247   C     0.45788   0.99545   0.42885   0.00000  Uiso   1.00
C248   C     0.44332   0.18825   0.44953   0.00000  Uiso   1.00
C249   C     0.45306   0.22906   0.33145   0.00000  Uiso   1.00
C250   C     0.46824   0.27005   0.41123   0.00000  Uiso   1.00
C251   C     0.40276   0.14479   0.51091   0.00000  Uiso   1.00
C252   C     0.37839   0.14906   0.44444   0.00000  Uiso   1.00
C253   C     0.35941   0.15348   0.57591   0.00000  Uiso   1.00
H254   H     0.43999   0.13993   0.89221   0.00000  Uiso   1.00
H255   H     0.46064   0.04101   0.88042   0.00000  Uiso   1.00
H256   H     0.46773   0.22941   0.86833   0.00000  Uiso   1.00
H257   H     0.39308   0.14943   0.98131   0.00000  Uiso   1.00
H258   H     0.48123   0.93130   0.78309   0.00000  Uiso   1.00
H259   H     0.49619   0.32857   0.75763   0.00000  Uiso   1.00
H260   H     0.33876   0.15990   0.99586   0.00000  Uiso   1.00
H261   H     0.42225   0.13949   0.24314   0.00000  Uiso   1.00
H262   H     0.44192   0.04054   0.19572   0.00000  Uiso   1.00
H263   H     0.44902   0.22895   0.18365   0.00000  Uiso   1.00
H264   H     0.37436   0.14896   0.29662   0.00000  Uiso   1.00
H265   H     0.46604   0.93092   0.22737   0.00000  Uiso   1.00
H266   H     0.48100   0.32819   0.20191   0.00000  Uiso   1.00
H267   H     0.32357   0.15953   0.44014   0.00000  Uiso   1.00
O268   O     0.48690   0.86603   0.48574   0.00000  Uiso   1.00
O269   O     0.50652   0.38724   0.45234   0.00000  Uiso   1.00
O270   O     0.29998   0.16596   0.76490   0.00000  Uiso   1.00
N271   N     0.47495   0.94478   0.65882   0.00000  Uiso   1.00
N272   N     0.48894   0.31620   0.63500   0.00000  Uiso   1.00
N273   N     0.34175   0.15853   0.85773   0.00000  Uiso   1.00
N274   N     0.46677   0.94458   0.35979   0.00000  Uiso   1.00
N275   N     0.48077   0.31600   0.33597   0.00000  Uiso   1.00
N276   N     0.33358   0.15833   0.55871   0.00000  Uiso   1.00
C277   C     0.93593   0.63982   0.74351   0.00000  Uiso   1.00
C278   C     0.94468   0.58602   0.64710   0.00000  Uiso   1.00
C279   C     0.95660   0.54089   0.73260   0.00000  Uiso   1.00
C280   C     0.96312   0.49558   0.62020   0.00000  Uiso   1.00
C281   C     0.97751   0.41206   0.49954   0.00000  Uiso   1.00
C282   C     0.94854   0.68838   0.64053   0.00000  Uiso   1.00
C283   C     0.96370   0.72932   0.72052   0.00000  Uiso   1.00
C284   C     0.97347   0.77018   0.60258   0.00000  Uiso   1.00
C285   C     0.99384   0.84561   0.47174   0.00000  Uiso   1.00
C286   C     0.90798   0.64492   0.70192   0.00000  Uiso   1.00
C287   C     0.88903   0.64933   0.83351   0.00000  Uiso   1.00
C288   C     0.86464   0.65361   0.76726   0.00000  Uiso   1.00
C289   C     0.82204   0.66155   0.73173   0.00000  Uiso   1.00
C290   C     0.92632   0.63959   0.39185   0.00000  Uiso   1.00
C291   C     0.93946   0.58589   0.45609   0.00000  Uiso   1.00
C292   C     0.94596   0.54063   0.34353   0.00000  Uiso   1.00
C293   C     0.95788   0.49545   0.42885   0.00000  Uiso   1.00
C294   C     0.94332   0.68825   0.44953   0.00000  Uiso   1.00
C295   C     0.95306   0.72906   0.33145   0.00000  Uiso   1.00
C296   C     0.96824   0.77005   0.41123   0.00000  Uiso   1.00
C297   C     0.90276   0.64479   0.51091   0.00000  Uiso   1.00
C298   C     0.87839   0.64906   0.44444   0.00000  Uiso   1.00
C299   C     0.85941   0.65348   0.57591   0.00000  Uiso   1.00
H300   H     0.93999   0.63993   0.89221   0.00000  Uiso   1.00
H301   H     0.96064   0.54101   0.88042   0.00000  Uiso   1.00
H302   H     0.96773   0.72941   0.86833   0.00000  Uiso   1.00
H303   H     0.89308   0.64943   0.98131   0.00000  Uiso   1.00
H304   H     0.98123   0.43130   0.78309   0.00000  Uiso   1.00
H305   H     0.99619   0.82857   0.75763   0.00000  Uiso   1.00
H306   H     0.83876   0.65990   0.99586   0.00000  Uiso   1.00
H307   H     0.92225   0.63949   0.24314   0.00000  Uiso   1.00
H308   H     0.94192   0.54054   0.19572   0.00000  Uiso   1.00
H309   H     0.94902   0.72895   0.18365   0.00000  Uiso   1.00
H310   H     0.87436   0.64896   0.29662   0.00000  Uiso   1.00
H311   H     0.96604   0.43092   0.22737   0.00000  Uiso   1.00
H312   H     0.98100   0.82819   0.20191   0.00000  Uiso   1.00
H313   H     0.82357   0.65953   0.44014   0.00000  Uiso   1.00
O314   O     0.98690   0.36603   0.48574   0.00000  Uiso   1.00
O315   O     0.00652   0.88724   0.45234   0.00000  Uiso   1.00
O316   O     0.79998   0.66596   0.76490   0.00000  Uiso   1.00
N317   N     0.97495   0.44478   0.65882   0.00000  Uiso   1.00
N318   N     0.98894   0.81620   0.63500   0.00000  Uiso   1.00
N319   N     0.84175   0.65853   0.85773   0.00000  Uiso   1.00
N320   N     0.96677   0.44458   0.35979   0.00000  Uiso   1.00
N321   N     0.98077   0.81600   0.33597   0.00000  Uiso   1.00
N322   N     0.83358   0.65833   0.55871   0.00000  Uiso   1.00
C323   C     0.93593   0.13982   0.24351   0.00000  Uiso   1.00
C324   C     0.94468   0.08602   0.14710   0.00000  Uiso   1.00
C325   C     0.95660   0.04089   0.23260   0.00000  Uiso   1.00
C326   C     0.96312   0.99558   0.12020   0.00000  Uiso   1.00
C327   C     0.97751   0.91206   0.99954   0.00000  Uiso   1.00
C328   C     0.94854   0.18838   0.14053   0.00000  Uiso   1.00
C329   C     0.96370   0.22932   0.22052   0.00000  Uiso   1.00
C330   C     0.97347   0.27018   0.10258   0.00000  Uiso   1.00
C331   C     0.99384   0.34561   0.97174   0.00000  Uiso   1.00
C332   C     0.90798   0.14492   0.20192   0.00000  Uiso   1.00
C333   C     0.88903   0.14933   0.33351   0.00000  Uiso   1.00
C334   C     0.86464   0.15361   0.26726   0.00000  Uiso   1.00
C335   C     0.82204   0.16155   0.23173   0.00000  Uiso   1.00
C336   C     0.92632   0.13959   0.89185   0.00000  Uiso   1.00
C337   C     0.93946   0.08589   0.95609   0.00000  Uiso   1.00
C338   C     0.94596   0.04063   0.84353   0.00000  Uiso   1.00
C339   C     0.95788   0.99545   0.92885   0.00000  Uiso   1.00
C340   C     0.94332   0.18825   0.94953   0.00000  Uiso   1.00
C341   C     0.95306   0.22906   0.83145   0.00000  Uiso   1.00
C342   C     0.96824   0.27005   0.91123   0.00000  Uiso   1.00
C343   C     0.90276   0.14479   0.01091   0.00000  Uiso   1.00
C344   C     0.87839   0.14906   0.94444   0.00000  Uiso   1.00
C345   C     0.85941   0.15348   0.07591   0.00000  Uiso   1.00
H346   H     0.93999   0.13993   0.39221   0.00000  Uiso   1.00
H347   H     0.96064   0.04101   0.38042   0.00000  Uiso   1.00
H348   H     0.96773   0.22941   0.36833   0.00000  Uiso   1.00
H349   H     0.89308   0.14943   0.48131   0.00000  Uiso   1.00
H350   H     0.98123   0.93130   0.28309   0.00000  Uiso   1.00
H351   H     0.99619   0.32857   0.25763   0.00000  Uiso   1.00
H352   H     0.83876   0.15990   0.49586   0.00000  Uiso   1.00
H353   H     0.92225   0.13949   0.74314   0.00000  Uiso   1.00
H354   H     0.94192   0.04054   0.69572   0.00000  Uiso   1.00
H355   H     0.94902   0.22895   0.68365   0.00000  Uiso   1.00
H356   H     0.87436   0.14896   0.79662   0.00000  Uiso   1.00
H357   H     0.96604   0.93092   0.72737   0.00000  Uiso   1.00
H358   H     0.98100   0.32819   0.70191   0.00000  Uiso   1.00
H359   H     0.82357   0.15953   0.94014   0.00000  Uiso   1.00
O360   O     0.98690   0.86603   0.98574   0.00000  Uiso   1.00
O361   O     0.00652   0.38724   0.95234   0.00000  Uiso   1.00
O362   O     0.79998   0.16596   0.26490   0.00000  Uiso   1.00
N363   N     0.97495   0.94478   0.15882   0.00000  Uiso   1.00
N364   N     0.98894   0.31620   0.13500   0.00000  Uiso   1.00
N365   N     0.84175   0.15853   0.35773   0.00000  Uiso   1.00
N366   N     0.96677   0.94458   0.85979   0.00000  Uiso   1.00
N367   N     0.98077   0.31600   0.83597   0.00000  Uiso   1.00
N368   N     0.83358   0.15833   0.05871   0.00000  Uiso   1.00
C369   C     0.81407   0.88982   0.49351   0.00000  Uiso   1.00
C370   C     0.80532   0.83602   0.39710   0.00000  Uiso   1.00
C371   C     0.79340   0.79089   0.48260   0.00000  Uiso   1.00
C372   C     0.78688   0.74558   0.37020   0.00000  Uiso   1.00
C373   C     0.77249   0.66206   0.24954   0.00000  Uiso   1.00
C374   C     0.80146   0.93838   0.39053   0.00000  Uiso   1.00
C375   C     0.78630   0.97932   0.47052   0.00000  Uiso   1.00
C376   C     0.77653   0.02018   0.35258   0.00000  Uiso   1.00
C377   C     0.75616   0.09561   0.22174   0.00000  Uiso   1.00
C378   C     0.84202   0.89492   0.45192   0.00000  Uiso   1.00
C379   C     0.86097   0.89933   0.58351   0.00000  Uiso   1.00
C380   C     0.88536   0.90361   0.51726   0.00000  Uiso   1.00
C381   C     0.92796   0.91155   0.48173   0.00000  Uiso   1.00
C382   C     0.82368   0.88959   0.14185   0.00000  Uiso   1.00
C383   C     0.81054   0.83589   0.20609   0.00000  Uiso   1.00
C384   C     0.80404   0.79063   0.09353   0.00000  Uiso   1.00
C385   C     0.79212   0.74545   0.17885   0.00000  Uiso   1.00
C386   C     0.80668   0.93825   0.19953   0.00000  Uiso   1.00
C387   C     0.79694   0.97906   0.08145   0.00000  Uiso   1.00
C388   C     0.78176   0.02005   0.16123   0.00000  Uiso   1.00
C389   C     0.84724   0.89479   0.26091   0.00000  Uiso   1.00
C390   C     0.87161   0.89906   0.19444   0.00000  Uiso   1.00
C391   C     0.89059   0.90348   0.32591   0.00000  Uiso   1.00
H392   H     0.81001   0.88993   0.64221   0.00000  Uiso   1.00
H393   H     0.78936   0.79101   0.63042   0.00000  Uiso   1.00
H394   H     0.78227   0.97941   0.61833   0.00000  Uiso   1.00
H395   H     0.85692   0.89943   0.73131   0.00000  Uiso   1.00
H396   H     0.76877   0.68130   0.53309   0.00000  Uiso   1.00
H397   H     0.75381   0.07857   0.50763   0.00000  Uiso   1.00
H398   H     0.91124   0.90990   0.74586   0.00000  Uiso   1.00
H399   H     0.82775   0.88949   0.99314   0.00000  Uiso   1.00
H400   H     0.80808   0.79054   0.94572   0.00000  Uiso   1.00
H401   H     0.80098   0.97895   0.93365   0.00000  Uiso   1.00
H402   H     0.87564   0.89896   0.04662   0.00000  Uiso   1.00
H403   H     0.78396   0.68092   0.97737   0.00000  Uiso   1.00
H404   H     0.76900   0.07819   0.95191   0.00000  Uiso   1.00
H405   H     0.92643   0.90953   0.19014   0.00000  Uiso   1.00
O406   O     0.76310   0.61603   0.23574   0.00000  Uiso   1.00
O407   O     0.74348   0.13724   0.20234   0.00000  Uiso   1.00
O408   O     0.95002   0.91596   0.51490   0.00000  Uiso   1.00
N409   N     0.77505   0.69478   0.40882   0.00000  Uiso   1.00
N410   N     0.76106   0.06620   0.38500   0.00000  Uiso   1.00
N411   N     0.90825   0.90853   0.60773   0.00000  Uiso   1.00
N412   N     0.78323   0.69458   0.10979   0.00000  Uiso   1.00
N413   N     0.76923   0.06600   0.08597   0.00000  Uiso   1.00
N414   N     0.91642   0.90833   0.30871   0.00000  Uiso   1.00
C415   C     0.81407   0.38982   0.99351   0.00000  Uiso   1.00
C416   C     0.80532   0.33602   0.89710   0.00000  Uiso   1.00
C417   C     0.79340   0.29089   0.98260   0.00000  Uiso   1.00
C418   C     0.78688   0.24558   0.87020   0.00000  Uiso   1.00
C419   C     0.77249   0.16206   0.74954   0.00000  Uiso   1.00
C420   C     0.80146   0.43838   0.89053   0.00000  Uiso   1.00
C421   C     0.78630   0.47932   0.97052   0.00000  Uiso   1.00
C422   C     0.77653   0.52018   0.85258   0.00000  Uiso   1.00
C423   C     0.75616   0.59561   0.72174   0.00000  Uiso   1.00
C424   C     0.84202   0.39492   0.95192   0.00000  Uiso   1.00
C425   C     0.86097   0.39933   0.08351   0.00000  Uiso   1.00
C426   C     0.88536   0.40361   0.01726   0.00000  Uiso   1.00
C427   C     0.92796   0.41155   0.98173   0.00000  Uiso   1.00
C428   C     0.82368   0.38959   0.64185   0.00000  Uiso   1.00
C429   C     0.81054   0.33589   0.70609   0.00000  Uiso   1.00
C430   C     0.80404   0.29063   0.59353   0.00000  Uiso   1.00
C431   C     0.79212   0.24545   0.67885   0.00000  Uiso   1.00
C432   C     0.80668   0.43825   0.69953   0.00000  Uiso   1.00
C433   C     0.79694   0.47906   0.58145   0.00000  Uiso   1.00
C434   C     0.78176   0.52005   0.66123   0.00000  Uiso   1.00
C435   C     0.84724   0.39479   0.76091   0.00000  Uiso   1.00
C436   C     0.87161   0.39906   0.69444   0.00000  Uiso   1.00
C437   C     0.89059   0.40348   0.82591   0.00000  Uiso   1.00
H438   H     0.81001   0.38993   0.14221   0.00000  Uiso   1.00
H439   H     0.78936   0.29101   0.13042   0.00000  Uiso   1.00
H440   H     0.78227   0.47941   0.11833   0.00000  Uiso   1.00
H441   H     0.85692   0.39943   0.23131   0.00000  Uiso   1.00
H442   H     0.76877   0.18130   0.03309   0.00000  Uiso   1.00
H443   H     0.75381   0.57857   0.00763   0.00000  Uiso   1.00
H444   H     0.91124   0.40990   0.24586   0.00000  Uiso   1.00
H445   H     0.82775   0.38949   0.49314   0.00000  Uiso   1.00
H446   H     0.80808   0.29054   0.44572   0.00000  Uiso   1.00
H447   H     0.80098   0.47895   0.43365   0.00000  Uiso   1.00
H448   H     0.87564   0.39896   0.54662   0.00000  Uiso   1.00
H449   H     0.78396   0.18092   0.47737   0.00000  Uiso   1.00
H450   H     0.76900   0.57819   0.45191   0.00000  Uiso   1.00
H451   H     0.92643   0.40953   0.69014   0.00000  Uiso   1.00
O452   O     0.76310   0.11603   0.73574   0.00000  Uiso   1.00
O453   O     0.74348   0.63724   0.70234   0.00000  Uiso   1.00
O454   O     0.95002   0.41596   0.01490   0.00000  Uiso   1.00
N455   N     0.77505   0.19478   0.90882   0.00000  Uiso   1.00
N456   N     0.76106   0.56620   0.88500   0.00000  Uiso   1.00
N457   N     0.90825   0.40853   0.10773   0.00000  Uiso   1.00
N458   N     0.78323   0.19458   0.60979   0.00000  Uiso   1.00
N459   N     0.76923   0.56600   0.58597   0.00000  Uiso   1.00
N460   N     0.91642   0.40833   0.80871   0.00000  Uiso   1.00
C461   C     0.31407   0.88982   0.99351   0.00000  Uiso   1.00
C462   C     0.30532   0.83602   0.89710   0.00000  Uiso   1.00
C463   C     0.29340   0.79089   0.98260   0.00000  Uiso   1.00
C464   C     0.28688   0.74558   0.87020   0.00000  Uiso   1.00
C465   C     0.27249   0.66206   0.74954   0.00000  Uiso   1.00
C466   C     0.30146   0.93838   0.89053   0.00000  Uiso   1.00
C467   C     0.28630   0.97932   0.97052   0.00000  Uiso   1.00
C468   C     0.27653   0.02018   0.85258   0.00000  Uiso   1.00
C469   C     0.25616   0.09561   0.72174   0.00000  Uiso   1.00
C470   C     0.34202   0.89492   0.95192   0.00000  Uiso   1.00
C471   C     0.36097   0.89933   0.08351   0.00000  Uiso   1.00
C472   C     0.38536   0.90361   0.01726   0.00000  Uiso   1.00
C473   C     0.42796   0.91155   0.98173   0.00000  Uiso   1.00
C474   C     0.32368   0.88959   0.64185   0.00000  Uiso   1.00
C475   C     0.31054   0.83589   0.70609   0.00000  Uiso   1.00
C476   C     0.30404   0.79063   0.59353   0.00000  Uiso   1.00
C477   C     0.29212   0.74545   0.67885   0.00000  Uiso   1.00
C478   C     0.30668   0.93825   0.69953   0.00000  Uiso   1.00
C479   C     0.29694   0.97906   0.58145   0.00000  Uiso   1.00
C480   C     0.28176   0.02005   0.66123   0.00000  Uiso   1.00
C481   C     0.34724   0.89479   0.76091   0.00000  Uiso   1.00
C482   C     0.37161   0.89906   0.69444   0.00000  Uiso   1.00
C483   C     0.39059   0.90348   0.82591   0.00000  Uiso   1.00
H484   H     0.31001   0.88993   0.14221   0.00000  Uiso   1.00
H485   H     0.28936   0.79101   0.13042   0.00000  Uiso   1.00
H486   H     0.28227   0.97941   0.11833   0.00000  Uiso   1.00
H487   H     0.35692   0.89943   0.23131   0.00000  Uiso   1.00
H488   H     0.26877   0.68130   0.03309   0.00000  Uiso   1.00
H489   H     0.25381   0.07857   0.00763   0.00000  Uiso   1.00
H490   H     0.41124   0.90990   0.24586   0.00000  Uiso   1.00
H491   H     0.32775   0.88949   0.49314   0.00000  Uiso   1.00
H492   H     0.30808   0.79054   0.44572   0.00000  Uiso   1.00
H493   H     0.30098   0.97895   0.43365   0.00000  Uiso   1.00
H494   H     0.37564   0.89896   0.54662   0.00000  Uiso   1.00
H495   H     0.28396   0.68092   0.47737   0.00000  Uiso   1.00
H496   H     0.26900   0.07819   0.45191   0.00000  Uiso   1.00
H497   H     0.42643   0.90953   0.69014   0.00000  Uiso   1.00
O498   O     0.26310   0.61603   0.73574   0.00000  Uiso   1.00
O499   O     0.24348   0.13724   0.70234   0.00000  Uiso   1.00
O500   O     0.45002   0.91596   0.01490   0.00000  Uiso   1.00
N501   N     0.27505   0.69478   0.90882   0.00000  Uiso   1.00
N502   N     0.26106   0.06620   0.88500   0.00000  Uiso   1.00
N503   N     0.40825   0.90853   0.10773   0.00000  Uiso   1.00
N504   N     0.28323   0.69458   0.60979   0.00000  Uiso   1.00
N505   N     0.26923   0.06600   0.58597   0.00000  Uiso   1.00
N506   N     0.41642   0.90833   0.80871   0.00000  Uiso   1.00
C507   C     0.31407   0.38982   0.49351   0.00000  Uiso   1.00
C508   C     0.30532   0.33602   0.39710   0.00000  Uiso   1.00
C509   C     0.29340   0.29089   0.48260   0.00000  Uiso   1.00
C510   C     0.28688   0.24558   0.37020   0.00000  Uiso   1.00
C511   C     0.27249   0.16206   0.24954   0.00000  Uiso   1.00
C512   C     0.30146   0.43838   0.39053   0.00000  Uiso   1.00
C513   C     0.28630   0.47932   0.47052   0.00000  Uiso   1.00
C514   C     0.27653   0.52018   0.35258   0.00000  Uiso   1.00
C515   C     0.25616   0.59561   0.22174   0.00000  Uiso   1.00
C516   C     0.34202   0.39492   0.45192   0.00000  Uiso   1.00
C517   C     0.36097   0.39933   0.58351   0.00000  Uiso   1.00
C518   C     0.38536   0.40361   0.51726   0.00000  Uiso   1.00
C519   C     0.42796   0.41155   0.48173   0.00000  Uiso   1.00
C520   C     0.32368   0.38959   0.14185   0.00000  Uiso   1.00
C521   C     0.31054   0.33589   0.20609   0.00000  Uiso   1.00
C522   C     0.30404   0.29063   0.09353   0.00000  Uiso   1.00
C523   C     0.29212   0.24545   0.17885   0.00000  Uiso   1.00
C524   C     0.30668   0.43825   0.19953   0.00000  Uiso   1.00
C525   C     0.29694   0.47906   0.08145   0.00000  Uiso   1.00
C526   C     0.28176   0.52005   0.16123   0.00000  Uiso   1.00
C527   C     0.34724   0.39479   0.26091   0.00000  Uiso   1.00
C528   C     0.37161   0.39906   0.19444   0.00000  Uiso   1.00
C529   C     0.39059   0.40348   0.32591   0.00000  Uiso   1.00
H530   H     0.31001   0.38993   0.64221   0.00000  Uiso   1.00
H531   H     0.28936   0.29101   0.63042   0.00000  Uiso   1.00
H532   H     0.28227   0.47941   0.61833   0.00000  Uiso   1.00
H533   H     0.35692   0.39943   0.73131   0.00000  Uiso   1.00
H534   H     0.26877   0.18130   0.53309   0.00000  Uiso   1.00
H535   H     0.25381   0.57857   0.50763   0.00000  Uiso   1.00
H536   H     0.41124   0.40990   0.74586   0.00000  Uiso   1.00
H537   H     0.32775   0.38949   0.99314   0.00000  Uiso   1.00
H538   H     0.30808   0.29054   0.94572   0.00000  Uiso   1.00
H539   H     0.30098   0.47895   0.93365   0.00000  Uiso   1.00
H540   H     0.37564   0.39896   0.04662   0.00000  Uiso   1.00
H541   H     0.28396   0.18092   0.97737   0.00000  Uiso   1.00
H542   H     0.26900   0.57819   0.95191   0.00000  Uiso   1.00
H543   H     0.42643   0.40953   0.19014   0.00000  Uiso   1.00
O544   O     0.26310   0.11603   0.23574   0.00000  Uiso   1.00
O545   O     0.24348   0.63724   0.20234   0.00000  Uiso   1.00
O546   O     0.45002   0.41596   0.51490   0.00000  Uiso   1.00
N547   N     0.27505   0.19478   0.40882   0.00000  Uiso   1.00
N548   N     0.26106   0.56620   0.38500   0.00000  Uiso   1.00
N549   N     0.40825   0.40853   0.60773   0.00000  Uiso   1.00
N550   N     0.28323   0.19458   0.10979   0.00000  Uiso   1.00
N551   N     0.26923   0.56600   0.08597   0.00000  Uiso   1.00
N552   N     0.41642   0.40833   0.30871   0.00000  Uiso   1.00
C553   C     0.68593   0.61018   0.49351   0.00000  Uiso   1.00
C554   C     0.69468   0.66398   0.39710   0.00000  Uiso   1.00
C555   C     0.70660   0.70911   0.48260   0.00000  Uiso   1.00
C556   C     0.71312   0.75442   0.37020   0.00000  Uiso   1.00
C557   C     0.72751   0.83794   0.24954   0.00000  Uiso   1.00
C558   C     0.69854   0.56162   0.39053   0.00000  Uiso   1.00
C559   C     0.71370   0.52068   0.47052   0.00000  Uiso   1.00
C560   C     0.72347   0.47982   0.35258   0.00000  Uiso   1.00
C561   C     0.74384   0.40439   0.22174   0.00000  Uiso   1.00
C562   C     0.65798   0.60508   0.45192   0.00000  Uiso   1.00
C563   C     0.63903   0.60067   0.58351   0.00000  Uiso   1.00
C564   C     0.61464   0.59639   0.51726   0.00000  Uiso   1.00
C565   C     0.57204   0.58845   0.48173   0.00000  Uiso   1.00
C566   C     0.67632   0.61041   0.14185   0.00000  Uiso   1.00
C567   C     0.68946   0.66411   0.20609   0.00000  Uiso   1.00
C568   C     0.69596   0.70937   0.09353   0.00000  Uiso   1.00
C569   C     0.70788   0.75455   0.17885   0.00000  Uiso   1.00
C570   C     0.69332   0.56175   0.19953   0.00000  Uiso   1.00
C571   C     0.70306   0.52094   0.08145   0.00000  Uiso   1.00
C572   C     0.71824   0.47995   0.16123   0.00000  Uiso   1.00
C573   C     0.65276   0.60521   0.26091   0.00000  Uiso   1.00
C574   C     0.62839   0.60094   0.19444   0.00000  Uiso   1.00
C575   C     0.60941   0.59652   0.32591   0.00000  Uiso   1.00
H576   H     0.68999   0.61007   0.64221   0.00000  Uiso   1.00
H577   H     0.71064   0.70899   0.63042   0.00000  Uiso   1.00
H578   H     0.71773   0.52059   0.61833   0.00000  Uiso   1.00
H579   H     0.64308   0.60057   0.73131   0.00000  Uiso   1.00
H580   H     0.73123   0.81870   0.53309   0.00000  Uiso   1.00
H581   H     0.74619   0.42143   0.50763   0.00000  Uiso   1.00
H582   H     0.58876   0.59010   0.74586   0.00000  Uiso   1.00
H583   H     0.67225   0.61051   0.99314   0.00000  Uiso   1.00
H584   H     0.69192   0.70946   0.94572   0.00000  Uiso   1.00
H585   H     0.69902   0.52105   0.93365   0.00000  Uiso   1.00
H586   H     0.62436   0.60104   0.04662   0.00000  Uiso   1.00
H587   H     0.71604   0.81908   0.97737   0.00000  Uiso   1.00
H588   H     0.73100   0.42181   0.95191   0.00000  Uiso   1.00
H589   H     0.57357   0.59047   0.19014   0.00000  Uiso   1.00
O590   O     0.73690   0.88397   0.23574   0.00000  Uiso   1.00
O591   O     0.75652   0.36276   0.20234   0.00000  Uiso   1.00
O592   O     0.54998   0.58404   0.51490   0.00000  Uiso   1.00
N593   N     0.72495   0.80522   0.40882   0.00000  Uiso   1.00
N594   N     0.73894   0.43380   0.38500   0.00000  Uiso   1.00
N595   N     0.59175   0.59147   0.60773   0.00000  Uiso   1.00
N596   N     0.71677   0.80542   0.10979   0.00000  Uiso   1.00
N597   N     0.73077   0.43400   0.08597   0.00000  Uiso   1.00
N598   N     0.58358   0.59167   0.30871   0.00000  Uiso   1.00
C599   C     0.68593   0.11018   0.99351   0.00000  Uiso   1.00
C600   C     0.69468   0.16398   0.89710   0.00000  Uiso   1.00
C601   C     0.70660   0.20911   0.98260   0.00000  Uiso   1.00
C602   C     0.71312   0.25442   0.87020   0.00000  Uiso   1.00
C603   C     0.72751   0.33794   0.74954   0.00000  Uiso   1.00
C604   C     0.69854   0.06162   0.89053   0.00000  Uiso   1.00
C605   C     0.71370   0.02068   0.97052   0.00000  Uiso   1.00
C606   C     0.72347   0.97982   0.85258   0.00000  Uiso   1.00
C607   C     0.74384   0.90439   0.72174   0.00000  Uiso   1.00
C608   C     0.65798   0.10508   0.95192   0.00000  Uiso   1.00
C609   C     0.63903   0.10067   0.08351   0.00000  Uiso   1.00
C610   C     0.61464   0.09639   0.01726   0.00000  Uiso   1.00
C611   C     0.57204   0.08845   0.98173   0.00000  Uiso   1.00
C612   C     0.67632   0.11041   0.64185   0.00000  Uiso   1.00
C613   C     0.68946   0.16411   0.70609   0.00000  Uiso   1.00
C614   C     0.69596   0.20937   0.59353   0.00000  Uiso   1.00
C615   C     0.70788   0.25455   0.67885   0.00000  Uiso   1.00
C616   C     0.69332   0.06175   0.69953   0.00000  Uiso   1.00
C617   C     0.70306   0.02094   0.58145   0.00000  Uiso   1.00
C618   C     0.71824   0.97995   0.66123   0.00000  Uiso   1.00
C619   C     0.65276   0.10521   0.76091   0.00000  Uiso   1.00
C620   C     0.62839   0.10094   0.69444   0.00000  Uiso   1.00
C621   C     0.60941   0.09652   0.82591   0.00000  Uiso   1.00
H622   H     0.68999   0.11007   0.14221   0.00000  Uiso   1.00
H623   H     0.71064   0.20899   0.13042   0.00000  Uiso   1.00
H624   H     0.71773   0.02059   0.11833   0.00000  Uiso   1.00
H625   H     0.64308   0.10057   0.23131   0.00000  Uiso   1.00
H626   H     0.73123   0.31870   0.03309   0.00000  Uiso   1.00
H627   H     0.74619   0.92143   0.00763   0.00000  Uiso   1.00
H628   H     0.58876   0.09010   0.24586   0.00000  Uiso   1.00
H629   H     0.67225   0.11051   0.49314   0.00000  Uiso   1.00
H630   H     0.69192   0.20946   0.44572   0.00000  Uiso   1.00
H631   H     0.69902   0.02105   0.43365   0.00000  Uiso   1.00
H632   H     0.62436   0.10104   0.54662   0.00000  Uiso   1.00
H633   H     0.71604   0.31908   0.47737   0.00000  Uiso   1.00
H634   H     0.73100   0.92181   0.45191   0.00000  Uiso   1.00
H635   H     0.57357   0.09047   0.69014   0.00000  Uiso   1.00
O636   O     0.73690   0.38397   0.73574   0.00000  Uiso   1.00
O637   O     0.75652   0.86276   0.70234   0.00000  Uiso   1.00
O638   O     0.54998   0.08404   0.01490   0.00000  Uiso   1.00
N639   N     0.72495   0.30522   0.90882   0.00000  Uiso   1.00
N640   N     0.73894   0.93380   0.88500   0.00000  Uiso   1.00
N641   N     0.59175   0.09147   0.10773   0.00000  Uiso   1.00
N642   N     0.71677   0.30542   0.60979   0.00000  Uiso   1.00
N643   N     0.73077   0.93400   0.58597   0.00000  Uiso   1.00
N644   N     0.58358   0.09167   0.80871   0.00000  Uiso   1.00
C645   C     0.18593   0.61018   0.99351   0.00000  Uiso   1.00
C646   C     0.19468   0.66398   0.89710   0.00000  Uiso   1.00
C647   C     0.20660   0.70911   0.98260   0.00000  Uiso   1.00
C648   C     0.21312   0.75442   0.87020   0.00000  Uiso   1.00
C649   C     0.22751   0.83794   0.74954   0.00000  Uiso   1.00
C650   C     0.19854   0.56162   0.89053   0.00000  Uiso   1.00
C651   C     0.21370   0.52068   0.97052   0.00000  Uiso   1.00
C652   C     0.22347   0.47982   0.85258   0.00000  Uiso   1.00
C653   C     0.24384   0.40439   0.72174   0.00000  Uiso   1.00
C654   C     0.15798   0.60508   0.95192   0.00000  Uiso   1.00
C655   C     0.13903   0.60067   0.08351   0.00000  Uiso   1.00
C656   C     0.11464   0.59639   0.01726   0.00000  Uiso   1.00
C657   C     0.07204   0.58845   0.98173   0.00000  Uiso   1.00
C658   C     0.17632   0.61041   0.64185   0.00000  Uiso   1.00
C659   C     0.18946   0.66411   0.70609   0.00000  Uiso   1.00
C660   C     0.19596   0.70937   0.59353   0.00000  Uiso   1.00
C661   C     0.20788   0.75455   0.67885   0.00000  Uiso   1.00
C662   C     0.19332   0.56175   0.69953   0.00000  Uiso   1.00
C663   C     0.20306   0.52094   0.58145   0.00000  Uiso   1.00
C664   C     0.21824   0.47995   0.66123   0.00000  Uiso   1.00
C665   C     0.15276   0.60521   0.76091   0.00000  Uiso   1.00
C666   C     0.12839   0.60094   0.69444   0.00000  Uiso   1.00
C667   C     0.10941   0.59652   0.82591   0.00000  Uiso   1.00
H668   H     0.18999   0.61007   0.14221   0.00000  Uiso   1.00
H669   H     0.21064   0.70899   0.13042   0.00000  Uiso   1.00
H670   H     0.21773   0.52059   0.11833   0.00000  Uiso   1.00
H671   H     0.14308   0.60057   0.23131   0.00000  Uiso   1.00
H672   H     0.23123   0.81870   0.03309   0.00000  Uiso   1.00
H673   H     0.24619   0.42143   0.00763   0.00000  Uiso   1.00
H674   H     0.08876   0.59010   0.24586   0.00000  Uiso   1.00
H675   H     0.17225   0.61051   0.49314   0.00000  Uiso   1.00
H676   H     0.19192   0.70946   0.44572   0.00000  Uiso   1.00
H677   H     0.19902   0.52105   0.43365   0.00000  Uiso   1.00
H678   H     0.12436   0.60104   0.54662   0.00000  Uiso   1.00
H679   H     0.21604   0.81908   0.47737   0.00000  Uiso   1.00
H680   H     0.23100   0.42181   0.45191   0.00000  Uiso   1.00
H681   H     0.07357   0.59047   0.69014   0.00000  Uiso   1.00
O682   O     0.23690   0.88397   0.73574   0.00000  Uiso   1.00
O683   O     0.25652   0.36276   0.70234   0.00000  Uiso   1.00
O684   O     0.04998   0.58404   0.01490   0.00000  Uiso   1.00
N685   N     0.22495   0.80522   0.90882   0.00000  Uiso   1.00
N686   N     0.23894   0.43380   0.88500   0.00000  Uiso   1.00
N687   N     0.09175   0.59147   0.10773   0.00000  Uiso   1.00
N688   N     0.21677   0.80542   0.60979   0.00000  Uiso   1.00
N689   N     0.23077   0.43400   0.58597   0.00000  Uiso   1.00
N690   N     0.08358   0.59167   0.80871   0.00000  Uiso   1.00
C691   C     0.18593   0.11018   0.49351   0.00000  Uiso   1.00
C692   C     0.19468   0.16398   0.39710   0.00000  Uiso   1.00
C693   C     0.20660   0.20911   0.48260   0.00000  Uiso   1.00
C694   C     0.21312   0.25442   0.37020   0.00000  Uiso   1.00
C695   C     0.22751   0.33794   0.24954   0.00000  Uiso   1.00
C696   C     0.19854   0.06162   0.39053   0.00000  Uiso   1.00
C697   C     0.21370   0.02068   0.47052   0.00000  Uiso   1.00
C698   C     0.22347   0.97982   0.35258   0.00000  Uiso   1.00
C699   C     0.24384   0.90439   0.22174   0.00000  Uiso   1.00
C700   C     0.15798   0.10508   0.45192   0.00000  Uiso   1.00
C701   C     0.13903   0.10067   0.58351   0.00000  Uiso   1.00
C702   C     0.11464   0.09639   0.51726   0.00000  Uiso   1.00
C703   C     0.07204   0.08845   0.48173   0.00000  Uiso   1.00
C704   C     0.17632   0.11041   0.14185   0.00000  Uiso   1.00
C705   C     0.18946   0.16411   0.20609   0.00000  Uiso   1.00
C706   C     0.19596   0.20937   0.09353   0.00000  Uiso   1.00
C707   C     0.20788   0.25455   0.17885   0.00000  Uiso   1.00
C708   C     0.19332   0.06175   0.19953   0.00000  Uiso   1.00
C709   C     0.20306   0.02094   0.08145   0.00000  Uiso   1.00
C710   C     0.21824   0.97995   0.16123   0.00000  Uiso   1.00
C711   C     0.15276   0.10521   0.26091   0.00000  Uiso   1.00
C712   C     0.12839   0.10094   0.19444   0.00000  Uiso   1.00
C713   C     0.10941   0.09652   0.32591   0.00000  Uiso   1.00
H714   H     0.18999   0.11007   0.64221   0.00000  Uiso   1.00
H715   H     0.21064   0.20899   0.63042   0.00000  Uiso   1.00
H716   H     0.21773   0.02059   0.61833   0.00000  Uiso   1.00
H717   H     0.14308   0.10057   0.73131   0.00000  Uiso   1.00
H718   H     0.23123   0.31870   0.53309   0.00000  Uiso   1.00
H719   H     0.24619   0.92143   0.50763   0.00000  Uiso   1.00
H720   H     0.08876   0.09010   0.74586   0.00000  Uiso   1.00
H721   H     0.17225   0.11051   0.99314   0.00000  Uiso   1.00
H722   H     0.19192   0.20946   0.94572   0.00000  Uiso   1.00
H723   H     0.19902   0.02105   0.93365   0.00000  Uiso   1.00
H724   H     0.12436   0.10104   0.04662   0.00000  Uiso   1.00
H725   H     0.21604   0.31908   0.97737   0.00000  Uiso   1.00
H726   H     0.23100   0.92181   0.95191   0.00000  Uiso   1.00
H727   H     0.07357   0.09047   0.19014   0.00000  Uiso   1.00
O728   O     0.23690   0.38397   0.23574   0.00000  Uiso   1.00
O729   O     0.25652   0.86276   0.20234   0.00000  Uiso   1.00
O730   O     0.04998   0.08404   0.51490   0.00000  Uiso   1.00
N731   N     0.22495   0.30522   0.40882   0.00000  Uiso   1.00
N732   N     0.23894   0.93380   0.38500   0.00000  Uiso   1.00
N733   N     0.09175   0.09147   0.60773   0.00000  Uiso   1.00
N734   N     0.21677   0.30542   0.10979   0.00000  Uiso   1.00
N735   N     0.23077   0.93400   0.08597   0.00000  Uiso   1.00
N736   N     0.08358   0.09167   0.30871   0.00000  Uiso   1.00
