data_job_03542
_audit_creation_date              2018-12-19
_audit_creation_method            'Materials Studio'
_symmetry_space_group_name_H-M    'P1'
_symmetry_Int_Tables_number       1
_symmetry_cell_setting            triclinic
loop_
_symmetry_equiv_pos_as_xyz
  x,y,z
_cell_length_a                    33.3745
_cell_length_b                    33.3745
_cell_length_c                    11.0018
_cell_angle_alpha                 90.0000
_cell_angle_beta                  90.0000
_cell_angle_gamma                 90.0000
loop_
_atom_site_label
_atom_site_type_symbol
_atom_site_fract_x
_atom_site_fract_y
_atom_site_fract_z
_atom_site_U_iso_or_equiv
_atom_site_adp_type
_atom_site_occupancy
C1     C     0.29246   0.39067   0.35841   0.00000  Uiso   1.00
C2     C     0.32539   0.38997   0.45450   0.00000  Uiso   1.00
C3     C     0.31964   0.38512   0.57856   0.00000  Uiso   1.00
C4     C     0.35362   0.38534   0.65135   0.00000  Uiso   1.00
C5     C     0.39891   0.38353   0.80811   0.00000  Uiso   1.00
C6     C     0.29723   0.43028   0.29083   0.00000  Uiso   1.00
C7     C     0.26780   0.45932   0.27727   0.00000  Uiso   1.00
C8     C     0.27807   0.49346   0.21226   0.00000  Uiso   1.00
C9     C     0.27963   0.55421   0.11484   0.00000  Uiso   1.00
C10    C     0.30314   0.35793   0.26730   0.00000  Uiso   1.00
C11    C     0.27868   0.32615   0.23393   0.00000  Uiso   1.00
C12    C     0.29394   0.29940   0.14909   0.00000  Uiso   1.00
C13    C     0.30468   0.24783   0.01514   0.00000  Uiso   1.00
C14    C     0.36303   0.39967   0.26706   0.00000  Uiso   1.00
C15    C     0.36372   0.39486   0.40488   0.00000  Uiso   1.00
C16    C     0.39772   0.39508   0.47750   0.00000  Uiso   1.00
C17    C     0.39202   0.39023   0.60164   0.00000  Uiso   1.00
C18    C     0.33555   0.43517   0.24122   0.00000  Uiso   1.00
C19    C     0.34588   0.46927   0.17620   0.00000  Uiso   1.00
C20    C     0.31648   0.49836   0.16256   0.00000  Uiso   1.00
C21    C     0.34147   0.36282   0.21768   0.00000  Uiso   1.00
C22    C     0.35676   0.33611   0.13287   0.00000  Uiso   1.00
C23    C     0.33234   0.30429   0.09938   0.00000  Uiso   1.00
H24    H     0.26262   0.38686   0.39704   0.00000  Uiso   1.00
H25    H     0.28997   0.38134   0.61693   0.00000  Uiso   1.00
H26    H     0.23814   0.45552   0.31567   0.00000  Uiso   1.00
H27    H     0.24902   0.32238   0.27235   0.00000  Uiso   1.00
H28    H     0.33720   0.37739   0.83884   0.00000  Uiso   1.00
H29    H     0.22790   0.53380   0.20359   0.00000  Uiso   1.00
H30    H     0.25085   0.25304   0.11222   0.00000  Uiso   1.00
H31    H     0.39288   0.40348   0.22843   0.00000  Uiso   1.00
H32    H     0.42738   0.39886   0.43907   0.00000  Uiso   1.00
H33    H     0.37554   0.47305   0.13781   0.00000  Uiso   1.00
H34    H     0.38643   0.33990   0.09449   0.00000  Uiso   1.00
H35    H     0.44872   0.39161   0.69449   0.00000  Uiso   1.00
H36    H     0.33942   0.54802   0.05923   0.00000  Uiso   1.00
H37    H     0.36238   0.26726   0.96787   0.00000  Uiso   1.00
O38    O     0.41330   0.38118   0.90828   0.00000  Uiso   1.00
O39    O     0.26990   0.58638   0.07483   0.00000  Uiso   1.00
O40    O     0.30002   0.21803   0.95497   0.00000  Uiso   1.00
N41    N     0.35871   0.38136   0.77596   0.00000  Uiso   1.00
N42    N     0.25652   0.52760   0.18205   0.00000  Uiso   1.00
N43    N     0.27798   0.26512   0.09661   0.00000  Uiso   1.00
N44    N     0.41872   0.38901   0.69828   0.00000  Uiso   1.00
N45    N     0.31653   0.53525   0.10437   0.00000  Uiso   1.00
N46    N     0.33799   0.27277   0.01893   0.00000  Uiso   1.00
C47    C     0.79246   0.89067   0.85841   0.00000  Uiso   1.00
C48    C     0.82539   0.88997   0.95450   0.00000  Uiso   1.00
C49    C     0.81964   0.88512   0.07856   0.00000  Uiso   1.00
C50    C     0.85362   0.88534   0.15135   0.00000  Uiso   1.00
C51    C     0.89891   0.88353   0.30811   0.00000  Uiso   1.00
C52    C     0.79723   0.93028   0.79083   0.00000  Uiso   1.00
C53    C     0.76780   0.95932   0.77727   0.00000  Uiso   1.00
C54    C     0.77807   0.99346   0.71226   0.00000  Uiso   1.00
C55    C     0.77963   0.05421   0.61484   0.00000  Uiso   1.00
C56    C     0.80314   0.85793   0.76730   0.00000  Uiso   1.00
C57    C     0.77868   0.82615   0.73393   0.00000  Uiso   1.00
C58    C     0.79394   0.79940   0.64909   0.00000  Uiso   1.00
C59    C     0.80468   0.74783   0.51514   0.00000  Uiso   1.00
C60    C     0.86303   0.89967   0.76706   0.00000  Uiso   1.00
C61    C     0.86372   0.89486   0.90488   0.00000  Uiso   1.00
C62    C     0.89772   0.89508   0.97750   0.00000  Uiso   1.00
C63    C     0.89202   0.89023   0.10164   0.00000  Uiso   1.00
C64    C     0.83555   0.93517   0.74122   0.00000  Uiso   1.00
C65    C     0.84588   0.96927   0.67620   0.00000  Uiso   1.00
C66    C     0.81648   0.99836   0.66256   0.00000  Uiso   1.00
C67    C     0.84147   0.86282   0.71768   0.00000  Uiso   1.00
C68    C     0.85676   0.83611   0.63287   0.00000  Uiso   1.00
C69    C     0.83234   0.80429   0.59938   0.00000  Uiso   1.00
H70    H     0.76262   0.88686   0.89704   0.00000  Uiso   1.00
H71    H     0.78997   0.88134   0.11693   0.00000  Uiso   1.00
H72    H     0.73814   0.95552   0.81567   0.00000  Uiso   1.00
H73    H     0.74902   0.82238   0.77235   0.00000  Uiso   1.00
H74    H     0.83720   0.87739   0.33884   0.00000  Uiso   1.00
H75    H     0.72790   0.03380   0.70359   0.00000  Uiso   1.00
H76    H     0.75085   0.75304   0.61222   0.00000  Uiso   1.00
H77    H     0.89288   0.90348   0.72843   0.00000  Uiso   1.00
H78    H     0.92738   0.89886   0.93907   0.00000  Uiso   1.00
H79    H     0.87554   0.97305   0.63781   0.00000  Uiso   1.00
H80    H     0.88643   0.83990   0.59449   0.00000  Uiso   1.00
H81    H     0.94872   0.89161   0.19449   0.00000  Uiso   1.00
H82    H     0.83942   0.04802   0.55923   0.00000  Uiso   1.00
H83    H     0.86238   0.76726   0.46787   0.00000  Uiso   1.00
O84    O     0.91330   0.88118   0.40828   0.00000  Uiso   1.00
O85    O     0.76990   0.08638   0.57483   0.00000  Uiso   1.00
O86    O     0.80002   0.71803   0.45497   0.00000  Uiso   1.00
N87    N     0.85871   0.88136   0.27596   0.00000  Uiso   1.00
N88    N     0.75652   0.02760   0.68205   0.00000  Uiso   1.00
N89    N     0.77798   0.76512   0.59661   0.00000  Uiso   1.00
N90    N     0.91872   0.88901   0.19828   0.00000  Uiso   1.00
N91    N     0.81653   0.03525   0.60437   0.00000  Uiso   1.00
N92    N     0.83799   0.77277   0.51893   0.00000  Uiso   1.00
C93    C     0.20754   0.10933   0.85841   0.00000  Uiso   1.00
C94    C     0.17461   0.11003   0.95450   0.00000  Uiso   1.00
C95    C     0.18036   0.11488   0.07856   0.00000  Uiso   1.00
C96    C     0.14638   0.11466   0.15135   0.00000  Uiso   1.00
C97    C     0.10109   0.11647   0.30811   0.00000  Uiso   1.00
C98    C     0.20277   0.06972   0.79083   0.00000  Uiso   1.00
C99    C     0.23220   0.04068   0.77727   0.00000  Uiso   1.00
C100   C     0.22193   0.00654   0.71226   0.00000  Uiso   1.00
C101   C     0.22037   0.94579   0.61484   0.00000  Uiso   1.00
C102   C     0.19686   0.14207   0.76730   0.00000  Uiso   1.00
C103   C     0.22132   0.17385   0.73393   0.00000  Uiso   1.00
C104   C     0.20606   0.20060   0.64909   0.00000  Uiso   1.00
C105   C     0.19532   0.25217   0.51514   0.00000  Uiso   1.00
C106   C     0.13697   0.10033   0.76706   0.00000  Uiso   1.00
C107   C     0.13628   0.10514   0.90488   0.00000  Uiso   1.00
C108   C     0.10228   0.10492   0.97750   0.00000  Uiso   1.00
C109   C     0.10798   0.10977   0.10164   0.00000  Uiso   1.00
C110   C     0.16445   0.06483   0.74122   0.00000  Uiso   1.00
C111   C     0.15412   0.03073   0.67620   0.00000  Uiso   1.00
C112   C     0.18352   0.00164   0.66256   0.00000  Uiso   1.00
C113   C     0.15853   0.13718   0.71768   0.00000  Uiso   1.00
C114   C     0.14324   0.16389   0.63287   0.00000  Uiso   1.00
C115   C     0.16766   0.19571   0.59938   0.00000  Uiso   1.00
H116   H     0.23738   0.11314   0.89704   0.00000  Uiso   1.00
H117   H     0.21003   0.11866   0.11693   0.00000  Uiso   1.00
H118   H     0.26186   0.04448   0.81567   0.00000  Uiso   1.00
H119   H     0.25098   0.17762   0.77235   0.00000  Uiso   1.00
H120   H     0.16280   0.12261   0.33884   0.00000  Uiso   1.00
H121   H     0.27210   0.96620   0.70359   0.00000  Uiso   1.00
H122   H     0.24915   0.24696   0.61222   0.00000  Uiso   1.00
H123   H     0.10712   0.09652   0.72843   0.00000  Uiso   1.00
H124   H     0.07262   0.10114   0.93907   0.00000  Uiso   1.00
H125   H     0.12446   0.02695   0.63781   0.00000  Uiso   1.00
H126   H     0.11357   0.16010   0.59449   0.00000  Uiso   1.00
H127   H     0.05128   0.10839   0.19449   0.00000  Uiso   1.00
H128   H     0.16058   0.95198   0.55923   0.00000  Uiso   1.00
H129   H     0.13762   0.23274   0.46787   0.00000  Uiso   1.00
O130   O     0.08670   0.11882   0.40828   0.00000  Uiso   1.00
O131   O     0.23010   0.91362   0.57483   0.00000  Uiso   1.00
O132   O     0.19998   0.28197   0.45497   0.00000  Uiso   1.00
N133   N     0.14129   0.11864   0.27596   0.00000  Uiso   1.00
N134   N     0.24348   0.97240   0.68205   0.00000  Uiso   1.00
N135   N     0.22202   0.23488   0.59661   0.00000  Uiso   1.00
N136   N     0.08128   0.11099   0.19828   0.00000  Uiso   1.00
N137   N     0.18347   0.96475   0.60437   0.00000  Uiso   1.00
N138   N     0.16201   0.22723   0.51893   0.00000  Uiso   1.00
C139   C     0.70754   0.60933   0.35841   0.00000  Uiso   1.00
C140   C     0.67461   0.61003   0.45450   0.00000  Uiso   1.00
C141   C     0.68036   0.61488   0.57856   0.00000  Uiso   1.00
C142   C     0.64638   0.61466   0.65135   0.00000  Uiso   1.00
C143   C     0.60109   0.61647   0.80811   0.00000  Uiso   1.00
C144   C     0.70277   0.56972   0.29083   0.00000  Uiso   1.00
C145   C     0.73220   0.54068   0.27727   0.00000  Uiso   1.00
C146   C     0.72193   0.50654   0.21226   0.00000  Uiso   1.00
C147   C     0.72037   0.44579   0.11484   0.00000  Uiso   1.00
C148   C     0.69686   0.64207   0.26730   0.00000  Uiso   1.00
C149   C     0.72132   0.67385   0.23393   0.00000  Uiso   1.00
C150   C     0.70606   0.70060   0.14909   0.00000  Uiso   1.00
C151   C     0.69532   0.75217   0.01514   0.00000  Uiso   1.00
C152   C     0.63697   0.60033   0.26706   0.00000  Uiso   1.00
C153   C     0.63628   0.60514   0.40488   0.00000  Uiso   1.00
C154   C     0.60228   0.60492   0.47750   0.00000  Uiso   1.00
C155   C     0.60798   0.60977   0.60164   0.00000  Uiso   1.00
C156   C     0.66445   0.56483   0.24122   0.00000  Uiso   1.00
C157   C     0.65412   0.53073   0.17620   0.00000  Uiso   1.00
C158   C     0.68352   0.50164   0.16256   0.00000  Uiso   1.00
C159   C     0.65853   0.63718   0.21768   0.00000  Uiso   1.00
C160   C     0.64324   0.66389   0.13287   0.00000  Uiso   1.00
C161   C     0.66766   0.69571   0.09938   0.00000  Uiso   1.00
H162   H     0.73738   0.61314   0.39704   0.00000  Uiso   1.00
H163   H     0.71003   0.61866   0.61693   0.00000  Uiso   1.00
H164   H     0.76186   0.54448   0.31567   0.00000  Uiso   1.00
H165   H     0.75098   0.67762   0.27235   0.00000  Uiso   1.00
H166   H     0.66280   0.62261   0.83884   0.00000  Uiso   1.00
H167   H     0.77210   0.46620   0.20359   0.00000  Uiso   1.00
H168   H     0.74915   0.74696   0.11222   0.00000  Uiso   1.00
H169   H     0.60712   0.59652   0.22843   0.00000  Uiso   1.00
H170   H     0.57262   0.60114   0.43907   0.00000  Uiso   1.00
H171   H     0.62446   0.52695   0.13781   0.00000  Uiso   1.00
H172   H     0.61357   0.66010   0.09449   0.00000  Uiso   1.00
H173   H     0.55128   0.60839   0.69449   0.00000  Uiso   1.00
H174   H     0.66058   0.45198   0.05923   0.00000  Uiso   1.00
H175   H     0.63762   0.73274   0.96787   0.00000  Uiso   1.00
O176   O     0.58670   0.61882   0.90828   0.00000  Uiso   1.00
O177   O     0.73010   0.41362   0.07483   0.00000  Uiso   1.00
O178   O     0.69998   0.78197   0.95497   0.00000  Uiso   1.00
N179   N     0.64129   0.61864   0.77596   0.00000  Uiso   1.00
N180   N     0.74348   0.47240   0.18205   0.00000  Uiso   1.00
N181   N     0.72202   0.73488   0.09661   0.00000  Uiso   1.00
N182   N     0.58128   0.61099   0.69828   0.00000  Uiso   1.00
N183   N     0.68347   0.46475   0.10437   0.00000  Uiso   1.00
N184   N     0.66201   0.72723   0.01893   0.00000  Uiso   1.00
C185   C     0.60933   0.79246   0.60841   0.00000  Uiso   1.00
C186   C     0.61003   0.82539   0.70450   0.00000  Uiso   1.00
C187   C     0.61488   0.81964   0.82856   0.00000  Uiso   1.00
C188   C     0.61466   0.85362   0.90135   0.00000  Uiso   1.00
C189   C     0.61647   0.89891   0.05811   0.00000  Uiso   1.00
C190   C     0.56972   0.79723   0.54083   0.00000  Uiso   1.00
C191   C     0.54068   0.76780   0.52727   0.00000  Uiso   1.00
C192   C     0.50654   0.77807   0.46226   0.00000  Uiso   1.00
C193   C     0.44579   0.77963   0.36484   0.00000  Uiso   1.00
C194   C     0.64207   0.80314   0.51730   0.00000  Uiso   1.00
C195   C     0.67385   0.77868   0.48393   0.00000  Uiso   1.00
C196   C     0.70060   0.79394   0.39909   0.00000  Uiso   1.00
C197   C     0.75217   0.80468   0.26514   0.00000  Uiso   1.00
C198   C     0.60033   0.86303   0.51706   0.00000  Uiso   1.00
C199   C     0.60514   0.86372   0.65488   0.00000  Uiso   1.00
C200   C     0.60492   0.89772   0.72750   0.00000  Uiso   1.00
C201   C     0.60977   0.89202   0.85164   0.00000  Uiso   1.00
C202   C     0.56483   0.83555   0.49122   0.00000  Uiso   1.00
C203   C     0.53073   0.84588   0.42620   0.00000  Uiso   1.00
C204   C     0.50164   0.81648   0.41256   0.00000  Uiso   1.00
C205   C     0.63718   0.84147   0.46768   0.00000  Uiso   1.00
C206   C     0.66389   0.85676   0.38287   0.00000  Uiso   1.00
C207   C     0.69571   0.83234   0.34938   0.00000  Uiso   1.00
H208   H     0.61314   0.76262   0.64704   0.00000  Uiso   1.00
H209   H     0.61866   0.78997   0.86693   0.00000  Uiso   1.00
H210   H     0.54448   0.73814   0.56567   0.00000  Uiso   1.00
H211   H     0.67762   0.74902   0.52235   0.00000  Uiso   1.00
H212   H     0.62261   0.83720   0.08884   0.00000  Uiso   1.00
H213   H     0.46620   0.72790   0.45359   0.00000  Uiso   1.00
H214   H     0.74696   0.75085   0.36222   0.00000  Uiso   1.00
H215   H     0.59652   0.89288   0.47843   0.00000  Uiso   1.00
H216   H     0.60114   0.92738   0.68907   0.00000  Uiso   1.00
H217   H     0.52695   0.87554   0.38781   0.00000  Uiso   1.00
H218   H     0.66010   0.88643   0.34449   0.00000  Uiso   1.00
H219   H     0.60839   0.94872   0.94449   0.00000  Uiso   1.00
H220   H     0.45198   0.83942   0.30923   0.00000  Uiso   1.00
H221   H     0.73274   0.86238   0.21787   0.00000  Uiso   1.00
O222   O     0.61882   0.91330   0.15828   0.00000  Uiso   1.00
O223   O     0.41362   0.76990   0.32483   0.00000  Uiso   1.00
O224   O     0.78197   0.80002   0.20497   0.00000  Uiso   1.00
N225   N     0.61864   0.85871   0.02596   0.00000  Uiso   1.00
N226   N     0.47240   0.75652   0.43205   0.00000  Uiso   1.00
N227   N     0.73488   0.77798   0.34661   0.00000  Uiso   1.00
N228   N     0.61099   0.91872   0.94828   0.00000  Uiso   1.00
N229   N     0.46475   0.81653   0.35437   0.00000  Uiso   1.00
N230   N     0.72723   0.83799   0.26893   0.00000  Uiso   1.00
C231   C     0.10933   0.29246   0.10841   0.00000  Uiso   1.00
C232   C     0.11003   0.32539   0.20450   0.00000  Uiso   1.00
C233   C     0.11488   0.31964   0.32856   0.00000  Uiso   1.00
C234   C     0.11466   0.35362   0.40135   0.00000  Uiso   1.00
C235   C     0.11647   0.39891   0.55811   0.00000  Uiso   1.00
C236   C     0.06972   0.29723   0.04083   0.00000  Uiso   1.00
C237   C     0.04068   0.26780   0.02727   0.00000  Uiso   1.00
C238   C     0.00654   0.27807   0.96226   0.00000  Uiso   1.00
C239   C     0.94579   0.27963   0.86484   0.00000  Uiso   1.00
C240   C     0.14207   0.30314   0.01730   0.00000  Uiso   1.00
C241   C     0.17385   0.27868   0.98393   0.00000  Uiso   1.00
C242   C     0.20060   0.29394   0.89909   0.00000  Uiso   1.00
C243   C     0.25217   0.30468   0.76514   0.00000  Uiso   1.00
C244   C     0.10033   0.36303   0.01706   0.00000  Uiso   1.00
C245   C     0.10514   0.36372   0.15488   0.00000  Uiso   1.00
C246   C     0.10492   0.39772   0.22750   0.00000  Uiso   1.00
C247   C     0.10977   0.39202   0.35164   0.00000  Uiso   1.00
C248   C     0.06483   0.33555   0.99122   0.00000  Uiso   1.00
C249   C     0.03073   0.34588   0.92620   0.00000  Uiso   1.00
C250   C     0.00164   0.31648   0.91256   0.00000  Uiso   1.00
C251   C     0.13718   0.34147   0.96768   0.00000  Uiso   1.00
C252   C     0.16389   0.35676   0.88287   0.00000  Uiso   1.00
C253   C     0.19571   0.33234   0.84938   0.00000  Uiso   1.00
H254   H     0.11314   0.26262   0.14704   0.00000  Uiso   1.00
H255   H     0.11866   0.28997   0.36693   0.00000  Uiso   1.00
H256   H     0.04448   0.23814   0.06567   0.00000  Uiso   1.00
H257   H     0.17762   0.24902   0.02235   0.00000  Uiso   1.00
H258   H     0.12261   0.33720   0.58884   0.00000  Uiso   1.00
H259   H     0.96620   0.22790   0.95359   0.00000  Uiso   1.00
H260   H     0.24696   0.25085   0.86222   0.00000  Uiso   1.00
H261   H     0.09652   0.39288   0.97843   0.00000  Uiso   1.00
H262   H     0.10114   0.42738   0.18907   0.00000  Uiso   1.00
H263   H     0.02695   0.37554   0.88781   0.00000  Uiso   1.00
H264   H     0.16010   0.38643   0.84449   0.00000  Uiso   1.00
H265   H     0.10839   0.44872   0.44449   0.00000  Uiso   1.00
H266   H     0.95198   0.33942   0.80923   0.00000  Uiso   1.00
H267   H     0.23274   0.36238   0.71787   0.00000  Uiso   1.00
O268   O     0.11882   0.41330   0.65828   0.00000  Uiso   1.00
O269   O     0.91362   0.26990   0.82483   0.00000  Uiso   1.00
O270   O     0.28197   0.30002   0.70497   0.00000  Uiso   1.00
N271   N     0.11864   0.35871   0.52596   0.00000  Uiso   1.00
N272   N     0.97240   0.25652   0.93205   0.00000  Uiso   1.00
N273   N     0.23488   0.27798   0.84661   0.00000  Uiso   1.00
N274   N     0.11099   0.41872   0.44828   0.00000  Uiso   1.00
N275   N     0.96475   0.31653   0.85437   0.00000  Uiso   1.00
N276   N     0.22723   0.33799   0.76893   0.00000  Uiso   1.00
C277   C     0.89067   0.70754   0.10841   0.00000  Uiso   1.00
C278   C     0.88997   0.67461   0.20450   0.00000  Uiso   1.00
C279   C     0.88512   0.68036   0.32856   0.00000  Uiso   1.00
C280   C     0.88534   0.64638   0.40135   0.00000  Uiso   1.00
C281   C     0.88353   0.60109   0.55811   0.00000  Uiso   1.00
C282   C     0.93028   0.70277   0.04083   0.00000  Uiso   1.00
C283   C     0.95932   0.73220   0.02727   0.00000  Uiso   1.00
C284   C     0.99346   0.72193   0.96226   0.00000  Uiso   1.00
C285   C     0.05421   0.72037   0.86484   0.00000  Uiso   1.00
C286   C     0.85793   0.69686   0.01730   0.00000  Uiso   1.00
C287   C     0.82615   0.72132   0.98393   0.00000  Uiso   1.00
C288   C     0.79940   0.70606   0.89909   0.00000  Uiso   1.00
C289   C     0.74783   0.69532   0.76514   0.00000  Uiso   1.00
C290   C     0.89967   0.63697   0.01706   0.00000  Uiso   1.00
C291   C     0.89486   0.63628   0.15488   0.00000  Uiso   1.00
C292   C     0.89508   0.60228   0.22750   0.00000  Uiso   1.00
C293   C     0.89023   0.60798   0.35164   0.00000  Uiso   1.00
C294   C     0.93517   0.66445   0.99122   0.00000  Uiso   1.00
C295   C     0.96927   0.65412   0.92620   0.00000  Uiso   1.00
C296   C     0.99836   0.68352   0.91256   0.00000  Uiso   1.00
C297   C     0.86282   0.65853   0.96768   0.00000  Uiso   1.00
C298   C     0.83611   0.64324   0.88287   0.00000  Uiso   1.00
C299   C     0.80429   0.66766   0.84938   0.00000  Uiso   1.00
H300   H     0.88686   0.73738   0.14704   0.00000  Uiso   1.00
H301   H     0.88134   0.71003   0.36693   0.00000  Uiso   1.00
H302   H     0.95552   0.76186   0.06567   0.00000  Uiso   1.00
H303   H     0.82238   0.75098   0.02235   0.00000  Uiso   1.00
H304   H     0.87739   0.66280   0.58884   0.00000  Uiso   1.00
H305   H     0.03380   0.77210   0.95359   0.00000  Uiso   1.00
H306   H     0.75304   0.74915   0.86222   0.00000  Uiso   1.00
H307   H     0.90348   0.60712   0.97843   0.00000  Uiso   1.00
H308   H     0.89886   0.57262   0.18907   0.00000  Uiso   1.00
H309   H     0.97305   0.62446   0.88781   0.00000  Uiso   1.00
H310   H     0.83990   0.61357   0.84449   0.00000  Uiso   1.00
H311   H     0.89161   0.55128   0.44449   0.00000  Uiso   1.00
H312   H     0.04802   0.66058   0.80923   0.00000  Uiso   1.00
H313   H     0.76726   0.63762   0.71787   0.00000  Uiso   1.00
O314   O     0.88118   0.58670   0.65828   0.00000  Uiso   1.00
O315   O     0.08638   0.73010   0.82483   0.00000  Uiso   1.00
O316   O     0.71803   0.69998   0.70497   0.00000  Uiso   1.00
N317   N     0.88136   0.64129   0.52596   0.00000  Uiso   1.00
N318   N     0.02760   0.74348   0.93205   0.00000  Uiso   1.00
N319   N     0.76512   0.72202   0.84661   0.00000  Uiso   1.00
N320   N     0.88901   0.58128   0.44828   0.00000  Uiso   1.00
N321   N     0.03525   0.68347   0.85437   0.00000  Uiso   1.00
N322   N     0.77277   0.66201   0.76893   0.00000  Uiso   1.00
C323   C     0.39067   0.20754   0.60841   0.00000  Uiso   1.00
C324   C     0.38997   0.17461   0.70450   0.00000  Uiso   1.00
C325   C     0.38512   0.18036   0.82856   0.00000  Uiso   1.00
C326   C     0.38534   0.14638   0.90135   0.00000  Uiso   1.00
C327   C     0.38353   0.10109   0.05811   0.00000  Uiso   1.00
C328   C     0.43028   0.20277   0.54083   0.00000  Uiso   1.00
C329   C     0.45932   0.23220   0.52727   0.00000  Uiso   1.00
C330   C     0.49346   0.22193   0.46226   0.00000  Uiso   1.00
C331   C     0.55421   0.22037   0.36484   0.00000  Uiso   1.00
C332   C     0.35793   0.19686   0.51730   0.00000  Uiso   1.00
C333   C     0.32615   0.22132   0.48393   0.00000  Uiso   1.00
C334   C     0.29940   0.20606   0.39909   0.00000  Uiso   1.00
C335   C     0.24783   0.19532   0.26514   0.00000  Uiso   1.00
C336   C     0.39967   0.13697   0.51706   0.00000  Uiso   1.00
C337   C     0.39486   0.13628   0.65488   0.00000  Uiso   1.00
C338   C     0.39508   0.10228   0.72750   0.00000  Uiso   1.00
C339   C     0.39023   0.10798   0.85164   0.00000  Uiso   1.00
C340   C     0.43517   0.16445   0.49122   0.00000  Uiso   1.00
C341   C     0.46927   0.15412   0.42620   0.00000  Uiso   1.00
C342   C     0.49836   0.18352   0.41256   0.00000  Uiso   1.00
C343   C     0.36282   0.15853   0.46768   0.00000  Uiso   1.00
C344   C     0.33611   0.14324   0.38287   0.00000  Uiso   1.00
C345   C     0.30429   0.16766   0.34938   0.00000  Uiso   1.00
H346   H     0.38686   0.23738   0.64704   0.00000  Uiso   1.00
H347   H     0.38134   0.21003   0.86693   0.00000  Uiso   1.00
H348   H     0.45552   0.26186   0.56567   0.00000  Uiso   1.00
H349   H     0.32238   0.25098   0.52235   0.00000  Uiso   1.00
H350   H     0.37739   0.16280   0.08884   0.00000  Uiso   1.00
H351   H     0.53380   0.27210   0.45359   0.00000  Uiso   1.00
H352   H     0.25304   0.24915   0.36222   0.00000  Uiso   1.00
H353   H     0.40348   0.10712   0.47843   0.00000  Uiso   1.00
H354   H     0.39886   0.07262   0.68907   0.00000  Uiso   1.00
H355   H     0.47305   0.12446   0.38781   0.00000  Uiso   1.00
H356   H     0.33990   0.11357   0.34449   0.00000  Uiso   1.00
H357   H     0.39161   0.05128   0.94449   0.00000  Uiso   1.00
H358   H     0.54802   0.16058   0.30923   0.00000  Uiso   1.00
H359   H     0.26726   0.13762   0.21787   0.00000  Uiso   1.00
O360   O     0.38118   0.08670   0.15828   0.00000  Uiso   1.00
O361   O     0.58638   0.23010   0.32483   0.00000  Uiso   1.00
O362   O     0.21803   0.19998   0.20497   0.00000  Uiso   1.00
N363   N     0.38136   0.14129   0.02596   0.00000  Uiso   1.00
N364   N     0.52760   0.24348   0.43205   0.00000  Uiso   1.00
N365   N     0.26512   0.22202   0.34661   0.00000  Uiso   1.00
N366   N     0.38901   0.08128   0.94828   0.00000  Uiso   1.00
N367   N     0.53525   0.18347   0.35437   0.00000  Uiso   1.00
N368   N     0.27277   0.16201   0.26893   0.00000  Uiso   1.00
C369   C     0.70754   0.10933   0.89159   0.00000  Uiso   1.00
C370   C     0.67461   0.11003   0.79550   0.00000  Uiso   1.00
C371   C     0.68036   0.11488   0.67144   0.00000  Uiso   1.00
C372   C     0.64638   0.11466   0.59865   0.00000  Uiso   1.00
C373   C     0.60109   0.11647   0.44189   0.00000  Uiso   1.00
C374   C     0.70277   0.06972   0.95917   0.00000  Uiso   1.00
C375   C     0.73220   0.04068   0.97273   0.00000  Uiso   1.00
C376   C     0.72193   0.00654   0.03774   0.00000  Uiso   1.00
C377   C     0.72037   0.94579   0.13516   0.00000  Uiso   1.00
C378   C     0.69686   0.14207   0.98270   0.00000  Uiso   1.00
C379   C     0.72132   0.17385   0.01607   0.00000  Uiso   1.00
C380   C     0.70606   0.20060   0.10091   0.00000  Uiso   1.00
C381   C     0.69532   0.25217   0.23486   0.00000  Uiso   1.00
C382   C     0.63697   0.10033   0.98294   0.00000  Uiso   1.00
C383   C     0.63628   0.10514   0.84512   0.00000  Uiso   1.00
C384   C     0.60228   0.10492   0.77250   0.00000  Uiso   1.00
C385   C     0.60798   0.10977   0.64836   0.00000  Uiso   1.00
C386   C     0.66445   0.06483   0.00878   0.00000  Uiso   1.00
C387   C     0.65412   0.03073   0.07380   0.00000  Uiso   1.00
C388   C     0.68352   0.00164   0.08744   0.00000  Uiso   1.00
C389   C     0.65853   0.13718   0.03232   0.00000  Uiso   1.00
C390   C     0.64324   0.16389   0.11713   0.00000  Uiso   1.00
C391   C     0.66766   0.19571   0.15062   0.00000  Uiso   1.00
H392   H     0.73738   0.11314   0.85296   0.00000  Uiso   1.00
H393   H     0.71003   0.11866   0.63307   0.00000  Uiso   1.00
H394   H     0.76186   0.04448   0.93433   0.00000  Uiso   1.00
H395   H     0.75098   0.17762   0.97765   0.00000  Uiso   1.00
H396   H     0.66280   0.12261   0.41116   0.00000  Uiso   1.00
H397   H     0.77210   0.96620   0.04641   0.00000  Uiso   1.00
H398   H     0.74915   0.24696   0.13778   0.00000  Uiso   1.00
H399   H     0.60712   0.09652   0.02157   0.00000  Uiso   1.00
H400   H     0.57262   0.10114   0.81093   0.00000  Uiso   1.00
H401   H     0.62446   0.02695   0.11219   0.00000  Uiso   1.00
H402   H     0.61357   0.16010   0.15551   0.00000  Uiso   1.00
H403   H     0.55128   0.10839   0.55551   0.00000  Uiso   1.00
H404   H     0.66058   0.95198   0.19077   0.00000  Uiso   1.00
H405   H     0.63762   0.23274   0.28213   0.00000  Uiso   1.00
O406   O     0.58670   0.11882   0.34172   0.00000  Uiso   1.00
O407   O     0.73010   0.91362   0.17517   0.00000  Uiso   1.00
O408   O     0.69998   0.28197   0.29503   0.00000  Uiso   1.00
N409   N     0.64129   0.11864   0.47404   0.00000  Uiso   1.00
N410   N     0.74348   0.97240   0.06795   0.00000  Uiso   1.00
N411   N     0.72202   0.23488   0.15339   0.00000  Uiso   1.00
N412   N     0.58128   0.11099   0.55172   0.00000  Uiso   1.00
N413   N     0.68347   0.96475   0.14563   0.00000  Uiso   1.00
N414   N     0.66201   0.22723   0.23107   0.00000  Uiso   1.00
C415   C     0.20754   0.60933   0.39159   0.00000  Uiso   1.00
C416   C     0.17461   0.61003   0.29550   0.00000  Uiso   1.00
C417   C     0.18036   0.61488   0.17144   0.00000  Uiso   1.00
C418   C     0.14638   0.61466   0.09865   0.00000  Uiso   1.00
C419   C     0.10109   0.61647   0.94189   0.00000  Uiso   1.00
C420   C     0.20277   0.56972   0.45917   0.00000  Uiso   1.00
C421   C     0.23220   0.54068   0.47273   0.00000  Uiso   1.00
C422   C     0.22193   0.50654   0.53774   0.00000  Uiso   1.00
C423   C     0.22037   0.44579   0.63516   0.00000  Uiso   1.00
C424   C     0.19686   0.64207   0.48270   0.00000  Uiso   1.00
C425   C     0.22132   0.67385   0.51607   0.00000  Uiso   1.00
C426   C     0.20606   0.70060   0.60091   0.00000  Uiso   1.00
C427   C     0.19532   0.75217   0.73486   0.00000  Uiso   1.00
C428   C     0.13697   0.60033   0.48294   0.00000  Uiso   1.00
C429   C     0.13628   0.60514   0.34512   0.00000  Uiso   1.00
C430   C     0.10228   0.60492   0.27250   0.00000  Uiso   1.00
C431   C     0.10798   0.60977   0.14836   0.00000  Uiso   1.00
C432   C     0.16445   0.56483   0.50878   0.00000  Uiso   1.00
C433   C     0.15412   0.53073   0.57380   0.00000  Uiso   1.00
C434   C     0.18352   0.50164   0.58744   0.00000  Uiso   1.00
C435   C     0.15853   0.63718   0.53232   0.00000  Uiso   1.00
C436   C     0.14324   0.66389   0.61713   0.00000  Uiso   1.00
C437   C     0.16766   0.69571   0.65062   0.00000  Uiso   1.00
H438   H     0.23738   0.61314   0.35296   0.00000  Uiso   1.00
H439   H     0.21003   0.61866   0.13307   0.00000  Uiso   1.00
H440   H     0.26186   0.54448   0.43433   0.00000  Uiso   1.00
H441   H     0.25098   0.67762   0.47765   0.00000  Uiso   1.00
H442   H     0.16280   0.62261   0.91116   0.00000  Uiso   1.00
H443   H     0.27210   0.46620   0.54641   0.00000  Uiso   1.00
H444   H     0.24915   0.74696   0.63778   0.00000  Uiso   1.00
H445   H     0.10712   0.59652   0.52157   0.00000  Uiso   1.00
H446   H     0.07262   0.60114   0.31093   0.00000  Uiso   1.00
H447   H     0.12446   0.52695   0.61219   0.00000  Uiso   1.00
H448   H     0.11357   0.66010   0.65551   0.00000  Uiso   1.00
H449   H     0.05128   0.60839   0.05551   0.00000  Uiso   1.00
H450   H     0.16058   0.45198   0.69077   0.00000  Uiso   1.00
H451   H     0.13762   0.73274   0.78213   0.00000  Uiso   1.00
O452   O     0.08670   0.61882   0.84172   0.00000  Uiso   1.00
O453   O     0.23010   0.41362   0.67517   0.00000  Uiso   1.00
O454   O     0.19998   0.78197   0.79503   0.00000  Uiso   1.00
N455   N     0.14129   0.61864   0.97404   0.00000  Uiso   1.00
N456   N     0.24348   0.47240   0.56795   0.00000  Uiso   1.00
N457   N     0.22202   0.73488   0.65339   0.00000  Uiso   1.00
N458   N     0.08128   0.61099   0.05172   0.00000  Uiso   1.00
N459   N     0.18347   0.46475   0.64563   0.00000  Uiso   1.00
N460   N     0.16201   0.72723   0.73107   0.00000  Uiso   1.00
C461   C     0.79246   0.39067   0.39159   0.00000  Uiso   1.00
C462   C     0.82539   0.38997   0.29550   0.00000  Uiso   1.00
C463   C     0.81964   0.38512   0.17144   0.00000  Uiso   1.00
C464   C     0.85362   0.38534   0.09865   0.00000  Uiso   1.00
C465   C     0.89891   0.38353   0.94189   0.00000  Uiso   1.00
C466   C     0.79723   0.43028   0.45917   0.00000  Uiso   1.00
C467   C     0.76780   0.45932   0.47273   0.00000  Uiso   1.00
C468   C     0.77807   0.49346   0.53774   0.00000  Uiso   1.00
C469   C     0.77963   0.55421   0.63516   0.00000  Uiso   1.00
C470   C     0.80314   0.35793   0.48270   0.00000  Uiso   1.00
C471   C     0.77868   0.32615   0.51607   0.00000  Uiso   1.00
C472   C     0.79394   0.29940   0.60091   0.00000  Uiso   1.00
C473   C     0.80468   0.24783   0.73486   0.00000  Uiso   1.00
C474   C     0.86303   0.39967   0.48294   0.00000  Uiso   1.00
C475   C     0.86372   0.39486   0.34512   0.00000  Uiso   1.00
C476   C     0.89772   0.39508   0.27250   0.00000  Uiso   1.00
C477   C     0.89202   0.39023   0.14836   0.00000  Uiso   1.00
C478   C     0.83555   0.43517   0.50878   0.00000  Uiso   1.00
C479   C     0.84588   0.46927   0.57380   0.00000  Uiso   1.00
C480   C     0.81648   0.49836   0.58744   0.00000  Uiso   1.00
C481   C     0.84147   0.36282   0.53232   0.00000  Uiso   1.00
C482   C     0.85676   0.33611   0.61713   0.00000  Uiso   1.00
C483   C     0.83234   0.30429   0.65062   0.00000  Uiso   1.00
H484   H     0.76262   0.38686   0.35296   0.00000  Uiso   1.00
H485   H     0.78997   0.38134   0.13307   0.00000  Uiso   1.00
H486   H     0.73814   0.45552   0.43433   0.00000  Uiso   1.00
H487   H     0.74902   0.32238   0.47765   0.00000  Uiso   1.00
H488   H     0.83720   0.37739   0.91116   0.00000  Uiso   1.00
H489   H     0.72790   0.53380   0.54641   0.00000  Uiso   1.00
H490   H     0.75085   0.25304   0.63778   0.00000  Uiso   1.00
H491   H     0.89288   0.40348   0.52157   0.00000  Uiso   1.00
H492   H     0.92738   0.39886   0.31093   0.00000  Uiso   1.00
H493   H     0.87554   0.47305   0.61219   0.00000  Uiso   1.00
H494   H     0.88643   0.33990   0.65551   0.00000  Uiso   1.00
H495   H     0.94872   0.39161   0.05551   0.00000  Uiso   1.00
H496   H     0.83942   0.54802   0.69077   0.00000  Uiso   1.00
H497   H     0.86238   0.26726   0.78213   0.00000  Uiso   1.00
O498   O     0.91330   0.38118   0.84172   0.00000  Uiso   1.00
O499   O     0.76990   0.58638   0.67517   0.00000  Uiso   1.00
O500   O     0.80002   0.21803   0.79503   0.00000  Uiso   1.00
N501   N     0.85871   0.38136   0.97404   0.00000  Uiso   1.00
N502   N     0.75652   0.52760   0.56795   0.00000  Uiso   1.00
N503   N     0.77798   0.26512   0.65339   0.00000  Uiso   1.00
N504   N     0.91872   0.38901   0.05172   0.00000  Uiso   1.00
N505   N     0.81653   0.53525   0.64563   0.00000  Uiso   1.00
N506   N     0.83799   0.27277   0.73107   0.00000  Uiso   1.00
C507   C     0.29246   0.89067   0.89159   0.00000  Uiso   1.00
C508   C     0.32539   0.88997   0.79550   0.00000  Uiso   1.00
C509   C     0.31964   0.88512   0.67144   0.00000  Uiso   1.00
C510   C     0.35362   0.88534   0.59865   0.00000  Uiso   1.00
C511   C     0.39891   0.88353   0.44189   0.00000  Uiso   1.00
C512   C     0.29723   0.93028   0.95917   0.00000  Uiso   1.00
C513   C     0.26780   0.95932   0.97273   0.00000  Uiso   1.00
C514   C     0.27807   0.99346   0.03774   0.00000  Uiso   1.00
C515   C     0.27963   0.05421   0.13516   0.00000  Uiso   1.00
C516   C     0.30314   0.85793   0.98270   0.00000  Uiso   1.00
C517   C     0.27868   0.82615   0.01607   0.00000  Uiso   1.00
C518   C     0.29394   0.79940   0.10091   0.00000  Uiso   1.00
C519   C     0.30468   0.74783   0.23486   0.00000  Uiso   1.00
C520   C     0.36303   0.89967   0.98294   0.00000  Uiso   1.00
C521   C     0.36372   0.89486   0.84512   0.00000  Uiso   1.00
C522   C     0.39772   0.89508   0.77250   0.00000  Uiso   1.00
C523   C     0.39202   0.89023   0.64836   0.00000  Uiso   1.00
C524   C     0.33555   0.93517   0.00878   0.00000  Uiso   1.00
C525   C     0.34588   0.96927   0.07380   0.00000  Uiso   1.00
C526   C     0.31648   0.99836   0.08744   0.00000  Uiso   1.00
C527   C     0.34147   0.86282   0.03232   0.00000  Uiso   1.00
C528   C     0.35676   0.83611   0.11713   0.00000  Uiso   1.00
C529   C     0.33234   0.80429   0.15062   0.00000  Uiso   1.00
H530   H     0.26262   0.88686   0.85296   0.00000  Uiso   1.00
H531   H     0.28997   0.88134   0.63307   0.00000  Uiso   1.00
H532   H     0.23814   0.95552   0.93433   0.00000  Uiso   1.00
H533   H     0.24902   0.82238   0.97765   0.00000  Uiso   1.00
H534   H     0.33720   0.87739   0.41116   0.00000  Uiso   1.00
H535   H     0.22790   0.03380   0.04641   0.00000  Uiso   1.00
H536   H     0.25085   0.75304   0.13778   0.00000  Uiso   1.00
H537   H     0.39288   0.90348   0.02157   0.00000  Uiso   1.00
H538   H     0.42738   0.89886   0.81093   0.00000  Uiso   1.00
H539   H     0.37554   0.97305   0.11219   0.00000  Uiso   1.00
H540   H     0.38643   0.83990   0.15551   0.00000  Uiso   1.00
H541   H     0.44872   0.89161   0.55551   0.00000  Uiso   1.00
H542   H     0.33942   0.04802   0.19077   0.00000  Uiso   1.00
H543   H     0.36238   0.76726   0.28213   0.00000  Uiso   1.00
O544   O     0.41330   0.88118   0.34172   0.00000  Uiso   1.00
O545   O     0.26990   0.08638   0.17517   0.00000  Uiso   1.00
O546   O     0.30002   0.71803   0.29503   0.00000  Uiso   1.00
N547   N     0.35871   0.88136   0.47404   0.00000  Uiso   1.00
N548   N     0.25652   0.02760   0.06795   0.00000  Uiso   1.00
N549   N     0.27798   0.76512   0.15339   0.00000  Uiso   1.00
N550   N     0.41872   0.88901   0.55172   0.00000  Uiso   1.00
N551   N     0.31653   0.03525   0.14563   0.00000  Uiso   1.00
N552   N     0.33799   0.77277   0.23107   0.00000  Uiso   1.00
C553   C     0.39067   0.70754   0.64159   0.00000  Uiso   1.00
C554   C     0.38997   0.67461   0.54550   0.00000  Uiso   1.00
C555   C     0.38512   0.68036   0.42144   0.00000  Uiso   1.00
C556   C     0.38534   0.64638   0.34865   0.00000  Uiso   1.00
C557   C     0.38353   0.60109   0.19189   0.00000  Uiso   1.00
C558   C     0.43028   0.70277   0.70917   0.00000  Uiso   1.00
C559   C     0.45932   0.73220   0.72273   0.00000  Uiso   1.00
C560   C     0.49346   0.72193   0.78774   0.00000  Uiso   1.00
C561   C     0.55421   0.72037   0.88516   0.00000  Uiso   1.00
C562   C     0.35793   0.69686   0.73270   0.00000  Uiso   1.00
C563   C     0.32615   0.72132   0.76607   0.00000  Uiso   1.00
C564   C     0.29940   0.70606   0.85091   0.00000  Uiso   1.00
C565   C     0.24783   0.69532   0.98486   0.00000  Uiso   1.00
C566   C     0.39967   0.63697   0.73294   0.00000  Uiso   1.00
C567   C     0.39486   0.63628   0.59512   0.00000  Uiso   1.00
C568   C     0.39508   0.60228   0.52250   0.00000  Uiso   1.00
C569   C     0.39023   0.60798   0.39836   0.00000  Uiso   1.00
C570   C     0.43517   0.66445   0.75878   0.00000  Uiso   1.00
C571   C     0.46927   0.65412   0.82380   0.00000  Uiso   1.00
C572   C     0.49836   0.68352   0.83744   0.00000  Uiso   1.00
C573   C     0.36282   0.65853   0.78232   0.00000  Uiso   1.00
C574   C     0.33611   0.64324   0.86713   0.00000  Uiso   1.00
C575   C     0.30429   0.66766   0.90062   0.00000  Uiso   1.00
H576   H     0.38686   0.73738   0.60296   0.00000  Uiso   1.00
H577   H     0.38134   0.71003   0.38307   0.00000  Uiso   1.00
H578   H     0.45552   0.76186   0.68433   0.00000  Uiso   1.00
H579   H     0.32238   0.75098   0.72765   0.00000  Uiso   1.00
H580   H     0.37739   0.66280   0.16116   0.00000  Uiso   1.00
H581   H     0.53380   0.77210   0.79641   0.00000  Uiso   1.00
H582   H     0.25304   0.74915   0.88778   0.00000  Uiso   1.00
H583   H     0.40348   0.60712   0.77157   0.00000  Uiso   1.00
H584   H     0.39886   0.57262   0.56093   0.00000  Uiso   1.00
H585   H     0.47305   0.62446   0.86219   0.00000  Uiso   1.00
H586   H     0.33990   0.61357   0.90551   0.00000  Uiso   1.00
H587   H     0.39161   0.55128   0.30551   0.00000  Uiso   1.00
H588   H     0.54802   0.66058   0.94077   0.00000  Uiso   1.00
H589   H     0.26726   0.63762   0.03213   0.00000  Uiso   1.00
O590   O     0.38118   0.58670   0.09172   0.00000  Uiso   1.00
O591   O     0.58638   0.73010   0.92517   0.00000  Uiso   1.00
O592   O     0.21803   0.69998   0.04503   0.00000  Uiso   1.00
N593   N     0.38136   0.64129   0.22404   0.00000  Uiso   1.00
N594   N     0.52760   0.74348   0.81795   0.00000  Uiso   1.00
N595   N     0.26512   0.72202   0.90339   0.00000  Uiso   1.00
N596   N     0.38901   0.58128   0.30172   0.00000  Uiso   1.00
N597   N     0.53525   0.68347   0.89563   0.00000  Uiso   1.00
N598   N     0.27277   0.66201   0.98107   0.00000  Uiso   1.00
C599   C     0.89067   0.20754   0.14159   0.00000  Uiso   1.00
C600   C     0.88997   0.17461   0.04550   0.00000  Uiso   1.00
C601   C     0.88512   0.18036   0.92144   0.00000  Uiso   1.00
C602   C     0.88534   0.14638   0.84865   0.00000  Uiso   1.00
C603   C     0.88353   0.10109   0.69189   0.00000  Uiso   1.00
C604   C     0.93028   0.20277   0.20917   0.00000  Uiso   1.00
C605   C     0.95932   0.23220   0.22273   0.00000  Uiso   1.00
C606   C     0.99346   0.22193   0.28774   0.00000  Uiso   1.00
C607   C     0.05421   0.22037   0.38516   0.00000  Uiso   1.00
C608   C     0.85793   0.19686   0.23270   0.00000  Uiso   1.00
C609   C     0.82615   0.22132   0.26607   0.00000  Uiso   1.00
C610   C     0.79940   0.20606   0.35091   0.00000  Uiso   1.00
C611   C     0.74783   0.19532   0.48486   0.00000  Uiso   1.00
C612   C     0.89967   0.13697   0.23294   0.00000  Uiso   1.00
C613   C     0.89486   0.13628   0.09512   0.00000  Uiso   1.00
C614   C     0.89508   0.10228   0.02250   0.00000  Uiso   1.00
C615   C     0.89023   0.10798   0.89836   0.00000  Uiso   1.00
C616   C     0.93517   0.16445   0.25878   0.00000  Uiso   1.00
C617   C     0.96927   0.15412   0.32380   0.00000  Uiso   1.00
C618   C     0.99836   0.18352   0.33744   0.00000  Uiso   1.00
C619   C     0.86282   0.15853   0.28232   0.00000  Uiso   1.00
C620   C     0.83611   0.14324   0.36713   0.00000  Uiso   1.00
C621   C     0.80429   0.16766   0.40062   0.00000  Uiso   1.00
H622   H     0.88686   0.23738   0.10296   0.00000  Uiso   1.00
H623   H     0.88134   0.21003   0.88307   0.00000  Uiso   1.00
H624   H     0.95552   0.26186   0.18433   0.00000  Uiso   1.00
H625   H     0.82238   0.25098   0.22765   0.00000  Uiso   1.00
H626   H     0.87739   0.16280   0.66116   0.00000  Uiso   1.00
H627   H     0.03380   0.27210   0.29641   0.00000  Uiso   1.00
H628   H     0.75304   0.24915   0.38778   0.00000  Uiso   1.00
H629   H     0.90348   0.10712   0.27157   0.00000  Uiso   1.00
H630   H     0.89886   0.07262   0.06093   0.00000  Uiso   1.00
H631   H     0.97305   0.12446   0.36219   0.00000  Uiso   1.00
H632   H     0.83990   0.11357   0.40551   0.00000  Uiso   1.00
H633   H     0.89161   0.05128   0.80551   0.00000  Uiso   1.00
H634   H     0.04802   0.16058   0.44077   0.00000  Uiso   1.00
H635   H     0.76726   0.13762   0.53213   0.00000  Uiso   1.00
O636   O     0.88118   0.08670   0.59172   0.00000  Uiso   1.00
O637   O     0.08638   0.23010   0.42517   0.00000  Uiso   1.00
O638   O     0.71803   0.19998   0.54503   0.00000  Uiso   1.00
N639   N     0.88136   0.14129   0.72404   0.00000  Uiso   1.00
N640   N     0.02760   0.24348   0.31795   0.00000  Uiso   1.00
N641   N     0.76512   0.22202   0.40339   0.00000  Uiso   1.00
N642   N     0.88901   0.08128   0.80172   0.00000  Uiso   1.00
N643   N     0.03525   0.18347   0.39563   0.00000  Uiso   1.00
N644   N     0.77277   0.16201   0.48107   0.00000  Uiso   1.00
C645   C     0.10933   0.79246   0.14159   0.00000  Uiso   1.00
C646   C     0.11003   0.82539   0.04550   0.00000  Uiso   1.00
C647   C     0.11488   0.81964   0.92144   0.00000  Uiso   1.00
C648   C     0.11466   0.85362   0.84865   0.00000  Uiso   1.00
C649   C     0.11647   0.89891   0.69189   0.00000  Uiso   1.00
C650   C     0.06972   0.79723   0.20917   0.00000  Uiso   1.00
C651   C     0.04068   0.76780   0.22273   0.00000  Uiso   1.00
C652   C     0.00654   0.77807   0.28774   0.00000  Uiso   1.00
C653   C     0.94579   0.77963   0.38516   0.00000  Uiso   1.00
C654   C     0.14207   0.80314   0.23270   0.00000  Uiso   1.00
C655   C     0.17385   0.77868   0.26607   0.00000  Uiso   1.00
C656   C     0.20060   0.79394   0.35091   0.00000  Uiso   1.00
C657   C     0.25217   0.80468   0.48486   0.00000  Uiso   1.00
C658   C     0.10033   0.86303   0.23294   0.00000  Uiso   1.00
C659   C     0.10514   0.86372   0.09512   0.00000  Uiso   1.00
C660   C     0.10492   0.89772   0.02250   0.00000  Uiso   1.00
C661   C     0.10977   0.89202   0.89836   0.00000  Uiso   1.00
C662   C     0.06483   0.83555   0.25878   0.00000  Uiso   1.00
C663   C     0.03073   0.84588   0.32380   0.00000  Uiso   1.00
C664   C     0.00164   0.81648   0.33744   0.00000  Uiso   1.00
C665   C     0.13718   0.84147   0.28232   0.00000  Uiso   1.00
C666   C     0.16389   0.85676   0.36713   0.00000  Uiso   1.00
C667   C     0.19571   0.83234   0.40062   0.00000  Uiso   1.00
H668   H     0.11314   0.76262   0.10296   0.00000  Uiso   1.00
H669   H     0.11866   0.78997   0.88307   0.00000  Uiso   1.00
H670   H     0.04448   0.73814   0.18433   0.00000  Uiso   1.00
H671   H     0.17762   0.74902   0.22765   0.00000  Uiso   1.00
H672   H     0.12261   0.83720   0.66116   0.00000  Uiso   1.00
H673   H     0.96620   0.72790   0.29641   0.00000  Uiso   1.00
H674   H     0.24696   0.75085   0.38778   0.00000  Uiso   1.00
H675   H     0.09652   0.89288   0.27157   0.00000  Uiso   1.00
H676   H     0.10114   0.92738   0.06093   0.00000  Uiso   1.00
H677   H     0.02695   0.87554   0.36219   0.00000  Uiso   1.00
H678   H     0.16010   0.88643   0.40551   0.00000  Uiso   1.00
H679   H     0.10839   0.94872   0.80551   0.00000  Uiso   1.00
H680   H     0.95198   0.83942   0.44077   0.00000  Uiso   1.00
H681   H     0.23274   0.86238   0.53213   0.00000  Uiso   1.00
O682   O     0.11882   0.91330   0.59172   0.00000  Uiso   1.00
O683   O     0.91362   0.76990   0.42517   0.00000  Uiso   1.00
O684   O     0.28197   0.80002   0.54503   0.00000  Uiso   1.00
N685   N     0.11864   0.85871   0.72404   0.00000  Uiso   1.00
N686   N     0.97240   0.75652   0.31795   0.00000  Uiso   1.00
N687   N     0.23488   0.77798   0.40339   0.00000  Uiso   1.00
N688   N     0.11099   0.91872   0.80172   0.00000  Uiso   1.00
N689   N     0.96475   0.81653   0.39563   0.00000  Uiso   1.00
N690   N     0.22723   0.83799   0.48107   0.00000  Uiso   1.00
C691   C     0.60933   0.29246   0.64159   0.00000  Uiso   1.00
C692   C     0.61003   0.32539   0.54550   0.00000  Uiso   1.00
C693   C     0.61488   0.31964   0.42144   0.00000  Uiso   1.00
C694   C     0.61466   0.35362   0.34865   0.00000  Uiso   1.00
C695   C     0.61647   0.39891   0.19189   0.00000  Uiso   1.00
C696   C     0.56972   0.29723   0.70917   0.00000  Uiso   1.00
C697   C     0.54068   0.26780   0.72273   0.00000  Uiso   1.00
C698   C     0.50654   0.27807   0.78774   0.00000  Uiso   1.00
C699   C     0.44579   0.27963   0.88516   0.00000  Uiso   1.00
C700   C     0.64207   0.30314   0.73270   0.00000  Uiso   1.00
C701   C     0.67385   0.27868   0.76607   0.00000  Uiso   1.00
C702   C     0.70060   0.29394   0.85091   0.00000  Uiso   1.00
C703   C     0.75217   0.30468   0.98486   0.00000  Uiso   1.00
C704   C     0.60033   0.36303   0.73294   0.00000  Uiso   1.00
C705   C     0.60514   0.36372   0.59512   0.00000  Uiso   1.00
C706   C     0.60492   0.39772   0.52250   0.00000  Uiso   1.00
C707   C     0.60977   0.39202   0.39836   0.00000  Uiso   1.00
C708   C     0.56483   0.33555   0.75878   0.00000  Uiso   1.00
C709   C     0.53073   0.34588   0.82380   0.00000  Uiso   1.00
C710   C     0.50164   0.31648   0.83744   0.00000  Uiso   1.00
C711   C     0.63718   0.34147   0.78232   0.00000  Uiso   1.00
C712   C     0.66389   0.35676   0.86713   0.00000  Uiso   1.00
C713   C     0.69571   0.33234   0.90062   0.00000  Uiso   1.00
H714   H     0.61314   0.26262   0.60296   0.00000  Uiso   1.00
H715   H     0.61866   0.28997   0.38307   0.00000  Uiso   1.00
H716   H     0.54448   0.23814   0.68433   0.00000  Uiso   1.00
H717   H     0.67762   0.24902   0.72765   0.00000  Uiso   1.00
H718   H     0.62261   0.33720   0.16116   0.00000  Uiso   1.00
H719   H     0.46620   0.22790   0.79641   0.00000  Uiso   1.00
H720   H     0.74696   0.25085   0.88778   0.00000  Uiso   1.00
H721   H     0.59652   0.39288   0.77157   0.00000  Uiso   1.00
H722   H     0.60114   0.42738   0.56093   0.00000  Uiso   1.00
H723   H     0.52695   0.37554   0.86219   0.00000  Uiso   1.00
H724   H     0.66010   0.38643   0.90551   0.00000  Uiso   1.00
H725   H     0.60839   0.44872   0.30551   0.00000  Uiso   1.00
H726   H     0.45198   0.33942   0.94077   0.00000  Uiso   1.00
H727   H     0.73274   0.36238   0.03213   0.00000  Uiso   1.00
O728   O     0.61882   0.41330   0.09172   0.00000  Uiso   1.00
O729   O     0.41362   0.26990   0.92517   0.00000  Uiso   1.00
O730   O     0.78197   0.30002   0.04503   0.00000  Uiso   1.00
N731   N     0.61864   0.35871   0.22404   0.00000  Uiso   1.00
N732   N     0.47240   0.25652   0.81795   0.00000  Uiso   1.00
N733   N     0.73488   0.27798   0.90339   0.00000  Uiso   1.00
N734   N     0.61099   0.41872   0.30172   0.00000  Uiso   1.00
N735   N     0.46475   0.31653   0.89563   0.00000  Uiso   1.00
N736   N     0.72723   0.33799   0.98107   0.00000  Uiso   1.00
