data_job_01461
_audit_creation_date              2018-12-19
_audit_creation_method            'Materials Studio'
_symmetry_space_group_name_H-M    'P1'
_symmetry_Int_Tables_number       1
_symmetry_cell_setting            triclinic
loop_
_symmetry_equiv_pos_as_xyz
  x,y,z
_cell_length_a                    43.2300
_cell_length_b                    32.2817
_cell_length_c                    7.0089
_cell_angle_alpha                 90.0000
_cell_angle_beta                  90.0000
_cell_angle_gamma                 90.0000
loop_
_atom_site_label
_atom_site_type_symbol
_atom_site_fract_x
_atom_site_fract_y
_atom_site_fract_z
_atom_site_U_iso_or_equiv
_atom_site_adp_type
_atom_site_occupancy
C1     C     0.13997   0.06526   0.17354   0.00000  Uiso   1.00
C2     C     0.10693   0.05975   0.10165   0.00000  Uiso   1.00
C3     C     0.08026   0.06554   0.20859   0.00000  Uiso   1.00
C4     C     0.05224   0.05894   0.11670   0.00000  Uiso   1.00
C5     C     0.00113   0.05220   0.03430   0.00000  Uiso   1.00
C6     C     0.15632   0.02420   0.13612   0.00000  Uiso   1.00
C7     C     0.17119   0.00009   0.27204   0.00000  Uiso   1.00
C8     C     0.18475   0.96357   0.20915   0.00000  Uiso   1.00
C9     C     0.21035   0.90164   0.18023   0.00000  Uiso   1.00
C10    C     0.15505   0.09675   0.04070   0.00000  Uiso   1.00
C11    C     0.16885   0.13363   0.09639   0.00000  Uiso   1.00
C12    C     0.18134   0.15819   0.95317   0.00000  Uiso   1.00
C13    C     0.20496   0.20890   0.77611   0.00000  Uiso   1.00
C14    C     0.13763   0.04327   0.82018   0.00000  Uiso   1.00
C15    C     0.10566   0.04781   0.90972   0.00000  Uiso   1.00
C16    C     0.07767   0.04121   0.81764   0.00000  Uiso   1.00
C17    C     0.05096   0.04698   0.92442   0.00000  Uiso   1.00
C18    C     0.15505   0.01226   0.94420   0.00000  Uiso   1.00
C19    C     0.16860   0.97577   0.88109   0.00000  Uiso   1.00
C20    C     0.18348   0.95161   0.01687   0.00000  Uiso   1.00
C21    C     0.15378   0.08481   0.84877   0.00000  Uiso   1.00
C22    C     0.16626   0.10931   0.70544   0.00000  Uiso   1.00
C23    C     0.18007   0.14623   0.76089   0.00000  Uiso   1.00
H24    H     0.14096   0.07455   0.32297   0.00000  Uiso   1.00
H25    H     0.08125   0.07477   0.35713   0.00000  Uiso   1.00
H26    H     0.17217   0.00934   0.42055   0.00000  Uiso   1.00
H27    H     0.16983   0.14286   0.24493   0.00000  Uiso   1.00
H28    H     0.01450   0.06974   0.31038   0.00000  Uiso   1.00
H29    H     0.20621   0.93178   0.44410   0.00000  Uiso   1.00
H30    H     0.20127   0.21333   0.07377   0.00000  Uiso   1.00
H31    H     0.13664   0.03398   0.67075   0.00000  Uiso   1.00
H32    H     0.07669   0.03197   0.66911   0.00000  Uiso   1.00
H33    H     0.16761   0.96654   0.73255   0.00000  Uiso   1.00
H34    H     0.16527   0.10006   0.55692   0.00000  Uiso   1.00
H35    H     0.01079   0.03500   0.75196   0.00000  Uiso   1.00
H36    H     0.20251   0.89704   0.88569   0.00000  Uiso   1.00
H37    H     0.19757   0.17859   0.51536   0.00000  Uiso   1.00
O38    O     0.97329   0.05177   0.04188   0.00000  Uiso   1.00
O39    O     0.22481   0.87077   0.21732   0.00000  Uiso   1.00
O40    O     0.21834   0.24017   0.73146   0.00000  Uiso   1.00
N41    N     0.02185   0.06185   0.17917   0.00000  Uiso   1.00
N42    N     0.20109   0.93285   0.30420   0.00000  Uiso   1.00
N43    N     0.19648   0.19608   0.95798   0.00000  Uiso   1.00
N44    N     0.01986   0.04315   0.87869   0.00000  Uiso   1.00
N45    N     0.19910   0.91416   0.00372   0.00000  Uiso   1.00
N46    N     0.19449   0.17739   0.65750   0.00000  Uiso   1.00
C47    C     0.13997   0.56526   0.67354   0.00000  Uiso   1.00
C48    C     0.10693   0.55975   0.60165   0.00000  Uiso   1.00
C49    C     0.08026   0.56554   0.70859   0.00000  Uiso   1.00
C50    C     0.05224   0.55894   0.61670   0.00000  Uiso   1.00
C51    C     0.00113   0.55220   0.53430   0.00000  Uiso   1.00
C52    C     0.15632   0.52420   0.63612   0.00000  Uiso   1.00
C53    C     0.17119   0.50009   0.77204   0.00000  Uiso   1.00
C54    C     0.18475   0.46357   0.70915   0.00000  Uiso   1.00
C55    C     0.21035   0.40164   0.68023   0.00000  Uiso   1.00
C56    C     0.15505   0.59675   0.54070   0.00000  Uiso   1.00
C57    C     0.16885   0.63363   0.59639   0.00000  Uiso   1.00
C58    C     0.18134   0.65819   0.45317   0.00000  Uiso   1.00
C59    C     0.20496   0.70890   0.27611   0.00000  Uiso   1.00
C60    C     0.13763   0.54327   0.32018   0.00000  Uiso   1.00
C61    C     0.10566   0.54781   0.40972   0.00000  Uiso   1.00
C62    C     0.07767   0.54121   0.31764   0.00000  Uiso   1.00
C63    C     0.05096   0.54698   0.42442   0.00000  Uiso   1.00
C64    C     0.15505   0.51226   0.44420   0.00000  Uiso   1.00
C65    C     0.16860   0.47577   0.38109   0.00000  Uiso   1.00
C66    C     0.18348   0.45161   0.51687   0.00000  Uiso   1.00
C67    C     0.15378   0.58481   0.34877   0.00000  Uiso   1.00
C68    C     0.16626   0.60931   0.20544   0.00000  Uiso   1.00
C69    C     0.18007   0.64623   0.26089   0.00000  Uiso   1.00
H70    H     0.14096   0.57455   0.82297   0.00000  Uiso   1.00
H71    H     0.08125   0.57477   0.85713   0.00000  Uiso   1.00
H72    H     0.17217   0.50934   0.92055   0.00000  Uiso   1.00
H73    H     0.16983   0.64286   0.74493   0.00000  Uiso   1.00
H74    H     0.01450   0.56974   0.81038   0.00000  Uiso   1.00
H75    H     0.20621   0.43178   0.94410   0.00000  Uiso   1.00
H76    H     0.20127   0.71333   0.57377   0.00000  Uiso   1.00
H77    H     0.13664   0.53398   0.17075   0.00000  Uiso   1.00
H78    H     0.07669   0.53197   0.16911   0.00000  Uiso   1.00
H79    H     0.16761   0.46654   0.23255   0.00000  Uiso   1.00
H80    H     0.16527   0.60006   0.05692   0.00000  Uiso   1.00
H81    H     0.01079   0.53500   0.25196   0.00000  Uiso   1.00
H82    H     0.20251   0.39704   0.38569   0.00000  Uiso   1.00
H83    H     0.19757   0.67859   0.01536   0.00000  Uiso   1.00
O84    O     0.97329   0.55177   0.54188   0.00000  Uiso   1.00
O85    O     0.22481   0.37077   0.71732   0.00000  Uiso   1.00
O86    O     0.21834   0.74017   0.23146   0.00000  Uiso   1.00
N87    N     0.02185   0.56185   0.67917   0.00000  Uiso   1.00
N88    N     0.20109   0.43285   0.80420   0.00000  Uiso   1.00
N89    N     0.19648   0.69608   0.45798   0.00000  Uiso   1.00
N90    N     0.01986   0.54315   0.37869   0.00000  Uiso   1.00
N91    N     0.19910   0.41416   0.50372   0.00000  Uiso   1.00
N92    N     0.19449   0.67739   0.15750   0.00000  Uiso   1.00
C93    C     0.63997   0.06526   0.67354   0.00000  Uiso   1.00
C94    C     0.60693   0.05975   0.60165   0.00000  Uiso   1.00
C95    C     0.58026   0.06554   0.70859   0.00000  Uiso   1.00
C96    C     0.55224   0.05894   0.61670   0.00000  Uiso   1.00
C97    C     0.50113   0.05220   0.53430   0.00000  Uiso   1.00
C98    C     0.65632   0.02420   0.63612   0.00000  Uiso   1.00
C99    C     0.67119   0.00009   0.77204   0.00000  Uiso   1.00
C100   C     0.68475   0.96357   0.70915   0.00000  Uiso   1.00
C101   C     0.71035   0.90164   0.68023   0.00000  Uiso   1.00
C102   C     0.65505   0.09675   0.54070   0.00000  Uiso   1.00
C103   C     0.66885   0.13363   0.59639   0.00000  Uiso   1.00
C104   C     0.68134   0.15819   0.45317   0.00000  Uiso   1.00
C105   C     0.70496   0.20890   0.27611   0.00000  Uiso   1.00
C106   C     0.63763   0.04327   0.32018   0.00000  Uiso   1.00
C107   C     0.60566   0.04781   0.40972   0.00000  Uiso   1.00
C108   C     0.57767   0.04121   0.31764   0.00000  Uiso   1.00
C109   C     0.55096   0.04698   0.42442   0.00000  Uiso   1.00
C110   C     0.65505   0.01226   0.44420   0.00000  Uiso   1.00
C111   C     0.66860   0.97577   0.38109   0.00000  Uiso   1.00
C112   C     0.68348   0.95161   0.51687   0.00000  Uiso   1.00
C113   C     0.65378   0.08481   0.34877   0.00000  Uiso   1.00
C114   C     0.66626   0.10931   0.20544   0.00000  Uiso   1.00
C115   C     0.68007   0.14623   0.26089   0.00000  Uiso   1.00
H116   H     0.64096   0.07455   0.82297   0.00000  Uiso   1.00
H117   H     0.58125   0.07477   0.85713   0.00000  Uiso   1.00
H118   H     0.67217   0.00934   0.92055   0.00000  Uiso   1.00
H119   H     0.66983   0.14286   0.74493   0.00000  Uiso   1.00
H120   H     0.51450   0.06974   0.81038   0.00000  Uiso   1.00
H121   H     0.70621   0.93178   0.94410   0.00000  Uiso   1.00
H122   H     0.70127   0.21333   0.57377   0.00000  Uiso   1.00
H123   H     0.63664   0.03398   0.17075   0.00000  Uiso   1.00
H124   H     0.57669   0.03197   0.16911   0.00000  Uiso   1.00
H125   H     0.66761   0.96654   0.23255   0.00000  Uiso   1.00
H126   H     0.66527   0.10006   0.05692   0.00000  Uiso   1.00
H127   H     0.51079   0.03500   0.25196   0.00000  Uiso   1.00
H128   H     0.70251   0.89704   0.38569   0.00000  Uiso   1.00
H129   H     0.69757   0.17859   0.01536   0.00000  Uiso   1.00
O130   O     0.47329   0.05177   0.54188   0.00000  Uiso   1.00
O131   O     0.72481   0.87077   0.71732   0.00000  Uiso   1.00
O132   O     0.71834   0.24017   0.23146   0.00000  Uiso   1.00
N133   N     0.52185   0.06185   0.67917   0.00000  Uiso   1.00
N134   N     0.70109   0.93285   0.80420   0.00000  Uiso   1.00
N135   N     0.69648   0.19608   0.45798   0.00000  Uiso   1.00
N136   N     0.51986   0.04315   0.37869   0.00000  Uiso   1.00
N137   N     0.69910   0.91416   0.50372   0.00000  Uiso   1.00
N138   N     0.69449   0.17739   0.15750   0.00000  Uiso   1.00
C139   C     0.63997   0.56526   0.17354   0.00000  Uiso   1.00
C140   C     0.60693   0.55975   0.10165   0.00000  Uiso   1.00
C141   C     0.58026   0.56554   0.20859   0.00000  Uiso   1.00
C142   C     0.55224   0.55894   0.11670   0.00000  Uiso   1.00
C143   C     0.50113   0.55220   0.03430   0.00000  Uiso   1.00
C144   C     0.65632   0.52420   0.13612   0.00000  Uiso   1.00
C145   C     0.67119   0.50009   0.27204   0.00000  Uiso   1.00
C146   C     0.68475   0.46357   0.20915   0.00000  Uiso   1.00
C147   C     0.71035   0.40164   0.18023   0.00000  Uiso   1.00
C148   C     0.65505   0.59675   0.04070   0.00000  Uiso   1.00
C149   C     0.66885   0.63363   0.09639   0.00000  Uiso   1.00
C150   C     0.68134   0.65819   0.95317   0.00000  Uiso   1.00
C151   C     0.70496   0.70890   0.77611   0.00000  Uiso   1.00
C152   C     0.63763   0.54327   0.82018   0.00000  Uiso   1.00
C153   C     0.60566   0.54781   0.90972   0.00000  Uiso   1.00
C154   C     0.57767   0.54121   0.81764   0.00000  Uiso   1.00
C155   C     0.55096   0.54698   0.92442   0.00000  Uiso   1.00
C156   C     0.65505   0.51226   0.94420   0.00000  Uiso   1.00
C157   C     0.66860   0.47577   0.88109   0.00000  Uiso   1.00
C158   C     0.68348   0.45161   0.01687   0.00000  Uiso   1.00
C159   C     0.65378   0.58481   0.84877   0.00000  Uiso   1.00
C160   C     0.66626   0.60931   0.70544   0.00000  Uiso   1.00
C161   C     0.68007   0.64623   0.76089   0.00000  Uiso   1.00
H162   H     0.64096   0.57455   0.32297   0.00000  Uiso   1.00
H163   H     0.58125   0.57477   0.35713   0.00000  Uiso   1.00
H164   H     0.67217   0.50934   0.42055   0.00000  Uiso   1.00
H165   H     0.66983   0.64286   0.24493   0.00000  Uiso   1.00
H166   H     0.51450   0.56974   0.31038   0.00000  Uiso   1.00
H167   H     0.70621   0.43178   0.44410   0.00000  Uiso   1.00
H168   H     0.70127   0.71333   0.07377   0.00000  Uiso   1.00
H169   H     0.63664   0.53398   0.67075   0.00000  Uiso   1.00
H170   H     0.57669   0.53197   0.66911   0.00000  Uiso   1.00
H171   H     0.66761   0.46654   0.73255   0.00000  Uiso   1.00
H172   H     0.66527   0.60006   0.55692   0.00000  Uiso   1.00
H173   H     0.51079   0.53500   0.75196   0.00000  Uiso   1.00
H174   H     0.70251   0.39704   0.88569   0.00000  Uiso   1.00
H175   H     0.69757   0.67859   0.51536   0.00000  Uiso   1.00
O176   O     0.47329   0.55177   0.04188   0.00000  Uiso   1.00
O177   O     0.72481   0.37077   0.21732   0.00000  Uiso   1.00
O178   O     0.71834   0.74017   0.73146   0.00000  Uiso   1.00
N179   N     0.52185   0.56185   0.17917   0.00000  Uiso   1.00
N180   N     0.70109   0.43285   0.30420   0.00000  Uiso   1.00
N181   N     0.69648   0.69608   0.95798   0.00000  Uiso   1.00
N182   N     0.51986   0.54315   0.87869   0.00000  Uiso   1.00
N183   N     0.69910   0.41416   0.00372   0.00000  Uiso   1.00
N184   N     0.69449   0.67739   0.65750   0.00000  Uiso   1.00
C185   C     0.86003   0.93474   0.17354   0.00000  Uiso   1.00
C186   C     0.89307   0.94025   0.10165   0.00000  Uiso   1.00
C187   C     0.91974   0.93446   0.20859   0.00000  Uiso   1.00
C188   C     0.94776   0.94106   0.11670   0.00000  Uiso   1.00
C189   C     0.99887   0.94780   0.03430   0.00000  Uiso   1.00
C190   C     0.84368   0.97580   0.13612   0.00000  Uiso   1.00
C191   C     0.82881   0.99991   0.27204   0.00000  Uiso   1.00
C192   C     0.81525   0.03643   0.20915   0.00000  Uiso   1.00
C193   C     0.78965   0.09836   0.18023   0.00000  Uiso   1.00
C194   C     0.84495   0.90325   0.04070   0.00000  Uiso   1.00
C195   C     0.83115   0.86637   0.09639   0.00000  Uiso   1.00
C196   C     0.81866   0.84181   0.95317   0.00000  Uiso   1.00
C197   C     0.79504   0.79110   0.77611   0.00000  Uiso   1.00
C198   C     0.86237   0.95673   0.82018   0.00000  Uiso   1.00
C199   C     0.89434   0.95219   0.90972   0.00000  Uiso   1.00
C200   C     0.92233   0.95879   0.81764   0.00000  Uiso   1.00
C201   C     0.94904   0.95302   0.92442   0.00000  Uiso   1.00
C202   C     0.84495   0.98774   0.94420   0.00000  Uiso   1.00
C203   C     0.83140   0.02423   0.88109   0.00000  Uiso   1.00
C204   C     0.81652   0.04839   0.01687   0.00000  Uiso   1.00
C205   C     0.84622   0.91519   0.84877   0.00000  Uiso   1.00
C206   C     0.83374   0.89069   0.70544   0.00000  Uiso   1.00
C207   C     0.81993   0.85377   0.76089   0.00000  Uiso   1.00
H208   H     0.85904   0.92545   0.32297   0.00000  Uiso   1.00
H209   H     0.91875   0.92523   0.35713   0.00000  Uiso   1.00
H210   H     0.82783   0.99066   0.42055   0.00000  Uiso   1.00
H211   H     0.83017   0.85714   0.24493   0.00000  Uiso   1.00
H212   H     0.98550   0.93026   0.31038   0.00000  Uiso   1.00
H213   H     0.79379   0.06822   0.44410   0.00000  Uiso   1.00
H214   H     0.79873   0.78667   0.07377   0.00000  Uiso   1.00
H215   H     0.86336   0.96602   0.67075   0.00000  Uiso   1.00
H216   H     0.92331   0.96803   0.66911   0.00000  Uiso   1.00
H217   H     0.83239   0.03346   0.73255   0.00000  Uiso   1.00
H218   H     0.83473   0.89994   0.55692   0.00000  Uiso   1.00
H219   H     0.98921   0.96500   0.75196   0.00000  Uiso   1.00
H220   H     0.79749   0.10296   0.88569   0.00000  Uiso   1.00
H221   H     0.80243   0.82141   0.51536   0.00000  Uiso   1.00
O222   O     0.02671   0.94823   0.04188   0.00000  Uiso   1.00
O223   O     0.77519   0.12923   0.21732   0.00000  Uiso   1.00
O224   O     0.78166   0.75983   0.73146   0.00000  Uiso   1.00
N225   N     0.97815   0.93815   0.17917   0.00000  Uiso   1.00
N226   N     0.79891   0.06715   0.30420   0.00000  Uiso   1.00
N227   N     0.80352   0.80392   0.95798   0.00000  Uiso   1.00
N228   N     0.98014   0.95685   0.87869   0.00000  Uiso   1.00
N229   N     0.80090   0.08584   0.00372   0.00000  Uiso   1.00
N230   N     0.80551   0.82261   0.65750   0.00000  Uiso   1.00
C231   C     0.86003   0.43474   0.67354   0.00000  Uiso   1.00
C232   C     0.89307   0.44025   0.60165   0.00000  Uiso   1.00
C233   C     0.91974   0.43446   0.70859   0.00000  Uiso   1.00
C234   C     0.94776   0.44106   0.61670   0.00000  Uiso   1.00
C235   C     0.99887   0.44780   0.53430   0.00000  Uiso   1.00
C236   C     0.84368   0.47580   0.63612   0.00000  Uiso   1.00
C237   C     0.82881   0.49991   0.77204   0.00000  Uiso   1.00
C238   C     0.81525   0.53643   0.70915   0.00000  Uiso   1.00
C239   C     0.78965   0.59836   0.68023   0.00000  Uiso   1.00
C240   C     0.84495   0.40325   0.54070   0.00000  Uiso   1.00
C241   C     0.83115   0.36637   0.59639   0.00000  Uiso   1.00
C242   C     0.81866   0.34181   0.45317   0.00000  Uiso   1.00
C243   C     0.79504   0.29110   0.27611   0.00000  Uiso   1.00
C244   C     0.86237   0.45673   0.32018   0.00000  Uiso   1.00
C245   C     0.89434   0.45219   0.40972   0.00000  Uiso   1.00
C246   C     0.92233   0.45879   0.31764   0.00000  Uiso   1.00
C247   C     0.94904   0.45302   0.42442   0.00000  Uiso   1.00
C248   C     0.84495   0.48774   0.44420   0.00000  Uiso   1.00
C249   C     0.83140   0.52423   0.38109   0.00000  Uiso   1.00
C250   C     0.81652   0.54839   0.51687   0.00000  Uiso   1.00
C251   C     0.84622   0.41519   0.34877   0.00000  Uiso   1.00
C252   C     0.83374   0.39069   0.20544   0.00000  Uiso   1.00
C253   C     0.81993   0.35377   0.26089   0.00000  Uiso   1.00
H254   H     0.85904   0.42545   0.82297   0.00000  Uiso   1.00
H255   H     0.91875   0.42523   0.85713   0.00000  Uiso   1.00
H256   H     0.82783   0.49066   0.92055   0.00000  Uiso   1.00
H257   H     0.83017   0.35714   0.74493   0.00000  Uiso   1.00
H258   H     0.98550   0.43026   0.81038   0.00000  Uiso   1.00
H259   H     0.79379   0.56822   0.94410   0.00000  Uiso   1.00
H260   H     0.79873   0.28667   0.57377   0.00000  Uiso   1.00
H261   H     0.86336   0.46602   0.17075   0.00000  Uiso   1.00
H262   H     0.92331   0.46803   0.16911   0.00000  Uiso   1.00
H263   H     0.83239   0.53346   0.23255   0.00000  Uiso   1.00
H264   H     0.83473   0.39994   0.05692   0.00000  Uiso   1.00
H265   H     0.98921   0.46500   0.25196   0.00000  Uiso   1.00
H266   H     0.79749   0.60296   0.38569   0.00000  Uiso   1.00
H267   H     0.80243   0.32141   0.01536   0.00000  Uiso   1.00
O268   O     0.02671   0.44823   0.54188   0.00000  Uiso   1.00
O269   O     0.77519   0.62923   0.71732   0.00000  Uiso   1.00
O270   O     0.78166   0.25983   0.23146   0.00000  Uiso   1.00
N271   N     0.97815   0.43815   0.67917   0.00000  Uiso   1.00
N272   N     0.79891   0.56715   0.80420   0.00000  Uiso   1.00
N273   N     0.80352   0.30392   0.45798   0.00000  Uiso   1.00
N274   N     0.98014   0.45685   0.37869   0.00000  Uiso   1.00
N275   N     0.80090   0.58584   0.50372   0.00000  Uiso   1.00
N276   N     0.80551   0.32261   0.15750   0.00000  Uiso   1.00
C277   C     0.36003   0.93474   0.67354   0.00000  Uiso   1.00
C278   C     0.39307   0.94025   0.60165   0.00000  Uiso   1.00
C279   C     0.41974   0.93446   0.70859   0.00000  Uiso   1.00
C280   C     0.44776   0.94106   0.61670   0.00000  Uiso   1.00
C281   C     0.49887   0.94780   0.53430   0.00000  Uiso   1.00
C282   C     0.34368   0.97580   0.63612   0.00000  Uiso   1.00
C283   C     0.32881   0.99991   0.77204   0.00000  Uiso   1.00
C284   C     0.31525   0.03643   0.70915   0.00000  Uiso   1.00
C285   C     0.28965   0.09836   0.68023   0.00000  Uiso   1.00
C286   C     0.34495   0.90325   0.54070   0.00000  Uiso   1.00
C287   C     0.33115   0.86637   0.59639   0.00000  Uiso   1.00
C288   C     0.31866   0.84181   0.45317   0.00000  Uiso   1.00
C289   C     0.29504   0.79110   0.27611   0.00000  Uiso   1.00
C290   C     0.36237   0.95673   0.32018   0.00000  Uiso   1.00
C291   C     0.39434   0.95219   0.40972   0.00000  Uiso   1.00
C292   C     0.42233   0.95879   0.31764   0.00000  Uiso   1.00
C293   C     0.44904   0.95302   0.42442   0.00000  Uiso   1.00
C294   C     0.34495   0.98774   0.44420   0.00000  Uiso   1.00
C295   C     0.33140   0.02423   0.38109   0.00000  Uiso   1.00
C296   C     0.31652   0.04839   0.51687   0.00000  Uiso   1.00
C297   C     0.34622   0.91519   0.34877   0.00000  Uiso   1.00
C298   C     0.33374   0.89069   0.20544   0.00000  Uiso   1.00
C299   C     0.31993   0.85377   0.26089   0.00000  Uiso   1.00
H300   H     0.35904   0.92545   0.82297   0.00000  Uiso   1.00
H301   H     0.41875   0.92523   0.85713   0.00000  Uiso   1.00
H302   H     0.32783   0.99066   0.92055   0.00000  Uiso   1.00
H303   H     0.33017   0.85714   0.74493   0.00000  Uiso   1.00
H304   H     0.48550   0.93026   0.81038   0.00000  Uiso   1.00
H305   H     0.29379   0.06822   0.94410   0.00000  Uiso   1.00
H306   H     0.29873   0.78667   0.57377   0.00000  Uiso   1.00
H307   H     0.36336   0.96602   0.17075   0.00000  Uiso   1.00
H308   H     0.42331   0.96803   0.16911   0.00000  Uiso   1.00
H309   H     0.33239   0.03346   0.23255   0.00000  Uiso   1.00
H310   H     0.33473   0.89994   0.05692   0.00000  Uiso   1.00
H311   H     0.48921   0.96500   0.25196   0.00000  Uiso   1.00
H312   H     0.29749   0.10296   0.38569   0.00000  Uiso   1.00
H313   H     0.30243   0.82141   0.01536   0.00000  Uiso   1.00
O314   O     0.52671   0.94823   0.54188   0.00000  Uiso   1.00
O315   O     0.27519   0.12923   0.71732   0.00000  Uiso   1.00
O316   O     0.28166   0.75983   0.23146   0.00000  Uiso   1.00
N317   N     0.47815   0.93815   0.67917   0.00000  Uiso   1.00
N318   N     0.29891   0.06715   0.80420   0.00000  Uiso   1.00
N319   N     0.30352   0.80392   0.45798   0.00000  Uiso   1.00
N320   N     0.48014   0.95685   0.37869   0.00000  Uiso   1.00
N321   N     0.30090   0.08584   0.50372   0.00000  Uiso   1.00
N322   N     0.30551   0.82261   0.15750   0.00000  Uiso   1.00
C323   C     0.36003   0.43474   0.17354   0.00000  Uiso   1.00
C324   C     0.39307   0.44025   0.10165   0.00000  Uiso   1.00
C325   C     0.41974   0.43446   0.20859   0.00000  Uiso   1.00
C326   C     0.44776   0.44106   0.11670   0.00000  Uiso   1.00
C327   C     0.49887   0.44780   0.03430   0.00000  Uiso   1.00
C328   C     0.34368   0.47580   0.13612   0.00000  Uiso   1.00
C329   C     0.32881   0.49991   0.27204   0.00000  Uiso   1.00
C330   C     0.31525   0.53643   0.20915   0.00000  Uiso   1.00
C331   C     0.28965   0.59836   0.18023   0.00000  Uiso   1.00
C332   C     0.34495   0.40325   0.04070   0.00000  Uiso   1.00
C333   C     0.33115   0.36637   0.09639   0.00000  Uiso   1.00
C334   C     0.31866   0.34181   0.95317   0.00000  Uiso   1.00
C335   C     0.29504   0.29110   0.77611   0.00000  Uiso   1.00
C336   C     0.36237   0.45673   0.82018   0.00000  Uiso   1.00
C337   C     0.39434   0.45219   0.90972   0.00000  Uiso   1.00
C338   C     0.42233   0.45879   0.81764   0.00000  Uiso   1.00
C339   C     0.44904   0.45302   0.92442   0.00000  Uiso   1.00
C340   C     0.34495   0.48774   0.94420   0.00000  Uiso   1.00
C341   C     0.33140   0.52423   0.88109   0.00000  Uiso   1.00
C342   C     0.31652   0.54839   0.01687   0.00000  Uiso   1.00
C343   C     0.34622   0.41519   0.84877   0.00000  Uiso   1.00
C344   C     0.33374   0.39069   0.70544   0.00000  Uiso   1.00
C345   C     0.31993   0.35377   0.76089   0.00000  Uiso   1.00
H346   H     0.35904   0.42545   0.32297   0.00000  Uiso   1.00
H347   H     0.41875   0.42523   0.35713   0.00000  Uiso   1.00
H348   H     0.32783   0.49066   0.42055   0.00000  Uiso   1.00
H349   H     0.33017   0.35714   0.24493   0.00000  Uiso   1.00
H350   H     0.48550   0.43026   0.31038   0.00000  Uiso   1.00
H351   H     0.29379   0.56822   0.44410   0.00000  Uiso   1.00
H352   H     0.29873   0.28667   0.07377   0.00000  Uiso   1.00
H353   H     0.36336   0.46602   0.67075   0.00000  Uiso   1.00
H354   H     0.42331   0.46803   0.66911   0.00000  Uiso   1.00
H355   H     0.33239   0.53346   0.73255   0.00000  Uiso   1.00
H356   H     0.33473   0.39994   0.55692   0.00000  Uiso   1.00
H357   H     0.48921   0.46500   0.75196   0.00000  Uiso   1.00
H358   H     0.29749   0.60296   0.88569   0.00000  Uiso   1.00
H359   H     0.30243   0.32141   0.51536   0.00000  Uiso   1.00
O360   O     0.52671   0.44823   0.04188   0.00000  Uiso   1.00
O361   O     0.27519   0.62923   0.21732   0.00000  Uiso   1.00
O362   O     0.28166   0.25983   0.73146   0.00000  Uiso   1.00
N363   N     0.47815   0.43815   0.17917   0.00000  Uiso   1.00
N364   N     0.29891   0.56715   0.30420   0.00000  Uiso   1.00
N365   N     0.30352   0.30392   0.95798   0.00000  Uiso   1.00
N366   N     0.48014   0.45685   0.87869   0.00000  Uiso   1.00
N367   N     0.30090   0.58584   0.00372   0.00000  Uiso   1.00
N368   N     0.30551   0.32261   0.65750   0.00000  Uiso   1.00
C369   C     0.38997   0.18474   0.42354   0.00000  Uiso   1.00
C370   C     0.35693   0.19025   0.35165   0.00000  Uiso   1.00
C371   C     0.33026   0.18446   0.45859   0.00000  Uiso   1.00
C372   C     0.30224   0.19106   0.36670   0.00000  Uiso   1.00
C373   C     0.25113   0.19780   0.28430   0.00000  Uiso   1.00
C374   C     0.40632   0.22580   0.38612   0.00000  Uiso   1.00
C375   C     0.42119   0.24991   0.52204   0.00000  Uiso   1.00
C376   C     0.43475   0.28643   0.45915   0.00000  Uiso   1.00
C377   C     0.46035   0.34836   0.43023   0.00000  Uiso   1.00
C378   C     0.40505   0.15325   0.29070   0.00000  Uiso   1.00
C379   C     0.41885   0.11637   0.34639   0.00000  Uiso   1.00
C380   C     0.43134   0.09181   0.20317   0.00000  Uiso   1.00
C381   C     0.45496   0.04110   0.02611   0.00000  Uiso   1.00
C382   C     0.38763   0.20673   0.07018   0.00000  Uiso   1.00
C383   C     0.35566   0.20219   0.15972   0.00000  Uiso   1.00
C384   C     0.32767   0.20879   0.06764   0.00000  Uiso   1.00
C385   C     0.30096   0.20302   0.17442   0.00000  Uiso   1.00
C386   C     0.40505   0.23774   0.19420   0.00000  Uiso   1.00
C387   C     0.41860   0.27423   0.13109   0.00000  Uiso   1.00
C388   C     0.43348   0.29839   0.26687   0.00000  Uiso   1.00
C389   C     0.40378   0.16519   0.09877   0.00000  Uiso   1.00
C390   C     0.41626   0.14069   0.95544   0.00000  Uiso   1.00
C391   C     0.43007   0.10377   0.01089   0.00000  Uiso   1.00
H392   H     0.39096   0.17545   0.57297   0.00000  Uiso   1.00
H393   H     0.33125   0.17523   0.60713   0.00000  Uiso   1.00
H394   H     0.42217   0.24066   0.67055   0.00000  Uiso   1.00
H395   H     0.41983   0.10714   0.49493   0.00000  Uiso   1.00
H396   H     0.26450   0.18026   0.56038   0.00000  Uiso   1.00
H397   H     0.45621   0.31822   0.69410   0.00000  Uiso   1.00
H398   H     0.45127   0.03667   0.32377   0.00000  Uiso   1.00
H399   H     0.38664   0.21602   0.92075   0.00000  Uiso   1.00
H400   H     0.32669   0.21803   0.91911   0.00000  Uiso   1.00
H401   H     0.41761   0.28346   0.98255   0.00000  Uiso   1.00
H402   H     0.41527   0.14994   0.80692   0.00000  Uiso   1.00
H403   H     0.26079   0.21500   0.00196   0.00000  Uiso   1.00
H404   H     0.45251   0.35296   0.13569   0.00000  Uiso   1.00
H405   H     0.44757   0.07141   0.76536   0.00000  Uiso   1.00
O406   O     0.22329   0.19823   0.29188   0.00000  Uiso   1.00
O407   O     0.47481   0.37923   0.46732   0.00000  Uiso   1.00
O408   O     0.46834   0.00983   0.98146   0.00000  Uiso   1.00
N409   N     0.27185   0.18815   0.42917   0.00000  Uiso   1.00
N410   N     0.45109   0.31715   0.55420   0.00000  Uiso   1.00
N411   N     0.44648   0.05392   0.20798   0.00000  Uiso   1.00
N412   N     0.26986   0.20685   0.12869   0.00000  Uiso   1.00
N413   N     0.44910   0.33584   0.25372   0.00000  Uiso   1.00
N414   N     0.44449   0.07261   0.90750   0.00000  Uiso   1.00
C415   C     0.38997   0.68474   0.92354   0.00000  Uiso   1.00
C416   C     0.35693   0.69025   0.85165   0.00000  Uiso   1.00
C417   C     0.33026   0.68446   0.95859   0.00000  Uiso   1.00
C418   C     0.30224   0.69106   0.86670   0.00000  Uiso   1.00
C419   C     0.25113   0.69780   0.78430   0.00000  Uiso   1.00
C420   C     0.40632   0.72580   0.88612   0.00000  Uiso   1.00
C421   C     0.42119   0.74991   0.02204   0.00000  Uiso   1.00
C422   C     0.43475   0.78643   0.95915   0.00000  Uiso   1.00
C423   C     0.46035   0.84836   0.93023   0.00000  Uiso   1.00
C424   C     0.40505   0.65325   0.79070   0.00000  Uiso   1.00
C425   C     0.41885   0.61637   0.84639   0.00000  Uiso   1.00
C426   C     0.43134   0.59181   0.70317   0.00000  Uiso   1.00
C427   C     0.45496   0.54110   0.52611   0.00000  Uiso   1.00
C428   C     0.38763   0.70673   0.57018   0.00000  Uiso   1.00
C429   C     0.35566   0.70219   0.65972   0.00000  Uiso   1.00
C430   C     0.32767   0.70879   0.56764   0.00000  Uiso   1.00
C431   C     0.30096   0.70302   0.67442   0.00000  Uiso   1.00
C432   C     0.40505   0.73774   0.69420   0.00000  Uiso   1.00
C433   C     0.41860   0.77423   0.63109   0.00000  Uiso   1.00
C434   C     0.43348   0.79839   0.76687   0.00000  Uiso   1.00
C435   C     0.40378   0.66519   0.59877   0.00000  Uiso   1.00
C436   C     0.41626   0.64069   0.45544   0.00000  Uiso   1.00
C437   C     0.43007   0.60377   0.51089   0.00000  Uiso   1.00
H438   H     0.39096   0.67545   0.07297   0.00000  Uiso   1.00
H439   H     0.33125   0.67523   0.10713   0.00000  Uiso   1.00
H440   H     0.42217   0.74066   0.17055   0.00000  Uiso   1.00
H441   H     0.41983   0.60714   0.99493   0.00000  Uiso   1.00
H442   H     0.26450   0.68026   0.06038   0.00000  Uiso   1.00
H443   H     0.45621   0.81822   0.19410   0.00000  Uiso   1.00
H444   H     0.45127   0.53667   0.82377   0.00000  Uiso   1.00
H445   H     0.38664   0.71602   0.42075   0.00000  Uiso   1.00
H446   H     0.32669   0.71803   0.41911   0.00000  Uiso   1.00
H447   H     0.41761   0.78346   0.48255   0.00000  Uiso   1.00
H448   H     0.41527   0.64994   0.30692   0.00000  Uiso   1.00
H449   H     0.26079   0.71500   0.50196   0.00000  Uiso   1.00
H450   H     0.45251   0.85296   0.63569   0.00000  Uiso   1.00
H451   H     0.44757   0.57141   0.26536   0.00000  Uiso   1.00
O452   O     0.22329   0.69823   0.79188   0.00000  Uiso   1.00
O453   O     0.47481   0.87923   0.96732   0.00000  Uiso   1.00
O454   O     0.46834   0.50983   0.48146   0.00000  Uiso   1.00
N455   N     0.27185   0.68815   0.92917   0.00000  Uiso   1.00
N456   N     0.45109   0.81715   0.05420   0.00000  Uiso   1.00
N457   N     0.44648   0.55392   0.70798   0.00000  Uiso   1.00
N458   N     0.26986   0.70685   0.62869   0.00000  Uiso   1.00
N459   N     0.44910   0.83584   0.75372   0.00000  Uiso   1.00
N460   N     0.44449   0.57261   0.40750   0.00000  Uiso   1.00
C461   C     0.88997   0.18474   0.92354   0.00000  Uiso   1.00
C462   C     0.85693   0.19025   0.85165   0.00000  Uiso   1.00
C463   C     0.83026   0.18446   0.95859   0.00000  Uiso   1.00
C464   C     0.80224   0.19106   0.86670   0.00000  Uiso   1.00
C465   C     0.75113   0.19780   0.78430   0.00000  Uiso   1.00
C466   C     0.90632   0.22580   0.88612   0.00000  Uiso   1.00
C467   C     0.92119   0.24991   0.02204   0.00000  Uiso   1.00
C468   C     0.93475   0.28643   0.95915   0.00000  Uiso   1.00
C469   C     0.96035   0.34836   0.93023   0.00000  Uiso   1.00
C470   C     0.90505   0.15325   0.79070   0.00000  Uiso   1.00
C471   C     0.91885   0.11637   0.84639   0.00000  Uiso   1.00
C472   C     0.93134   0.09181   0.70317   0.00000  Uiso   1.00
C473   C     0.95496   0.04110   0.52611   0.00000  Uiso   1.00
C474   C     0.88763   0.20673   0.57018   0.00000  Uiso   1.00
C475   C     0.85566   0.20219   0.65972   0.00000  Uiso   1.00
C476   C     0.82767   0.20879   0.56764   0.00000  Uiso   1.00
C477   C     0.80096   0.20302   0.67442   0.00000  Uiso   1.00
C478   C     0.90505   0.23774   0.69420   0.00000  Uiso   1.00
C479   C     0.91860   0.27423   0.63109   0.00000  Uiso   1.00
C480   C     0.93348   0.29839   0.76687   0.00000  Uiso   1.00
C481   C     0.90378   0.16519   0.59877   0.00000  Uiso   1.00
C482   C     0.91626   0.14069   0.45544   0.00000  Uiso   1.00
C483   C     0.93007   0.10377   0.51089   0.00000  Uiso   1.00
H484   H     0.89096   0.17545   0.07297   0.00000  Uiso   1.00
H485   H     0.83125   0.17523   0.10713   0.00000  Uiso   1.00
H486   H     0.92217   0.24066   0.17055   0.00000  Uiso   1.00
H487   H     0.91983   0.10714   0.99493   0.00000  Uiso   1.00
H488   H     0.76450   0.18026   0.06038   0.00000  Uiso   1.00
H489   H     0.95621   0.31822   0.19410   0.00000  Uiso   1.00
H490   H     0.95127   0.03667   0.82377   0.00000  Uiso   1.00
H491   H     0.88664   0.21602   0.42075   0.00000  Uiso   1.00
H492   H     0.82669   0.21803   0.41911   0.00000  Uiso   1.00
H493   H     0.91761   0.28346   0.48255   0.00000  Uiso   1.00
H494   H     0.91527   0.14994   0.30692   0.00000  Uiso   1.00
H495   H     0.76079   0.21500   0.50196   0.00000  Uiso   1.00
H496   H     0.95251   0.35296   0.63569   0.00000  Uiso   1.00
H497   H     0.94757   0.07141   0.26536   0.00000  Uiso   1.00
O498   O     0.72329   0.19823   0.79188   0.00000  Uiso   1.00
O499   O     0.97481   0.37923   0.96732   0.00000  Uiso   1.00
O500   O     0.96834   0.00983   0.48146   0.00000  Uiso   1.00
N501   N     0.77185   0.18815   0.92917   0.00000  Uiso   1.00
N502   N     0.95109   0.31715   0.05420   0.00000  Uiso   1.00
N503   N     0.94648   0.05392   0.70798   0.00000  Uiso   1.00
N504   N     0.76986   0.20685   0.62869   0.00000  Uiso   1.00
N505   N     0.94910   0.33584   0.75372   0.00000  Uiso   1.00
N506   N     0.94449   0.07261   0.40750   0.00000  Uiso   1.00
C507   C     0.88997   0.68474   0.42354   0.00000  Uiso   1.00
C508   C     0.85693   0.69025   0.35165   0.00000  Uiso   1.00
C509   C     0.83026   0.68446   0.45859   0.00000  Uiso   1.00
C510   C     0.80224   0.69106   0.36670   0.00000  Uiso   1.00
C511   C     0.75113   0.69780   0.28430   0.00000  Uiso   1.00
C512   C     0.90632   0.72580   0.38612   0.00000  Uiso   1.00
C513   C     0.92119   0.74991   0.52204   0.00000  Uiso   1.00
C514   C     0.93475   0.78643   0.45915   0.00000  Uiso   1.00
C515   C     0.96035   0.84836   0.43023   0.00000  Uiso   1.00
C516   C     0.90505   0.65325   0.29070   0.00000  Uiso   1.00
C517   C     0.91885   0.61637   0.34639   0.00000  Uiso   1.00
C518   C     0.93134   0.59181   0.20317   0.00000  Uiso   1.00
C519   C     0.95496   0.54110   0.02611   0.00000  Uiso   1.00
C520   C     0.88763   0.70673   0.07018   0.00000  Uiso   1.00
C521   C     0.85566   0.70219   0.15972   0.00000  Uiso   1.00
C522   C     0.82767   0.70879   0.06764   0.00000  Uiso   1.00
C523   C     0.80096   0.70302   0.17442   0.00000  Uiso   1.00
C524   C     0.90505   0.73774   0.19420   0.00000  Uiso   1.00
C525   C     0.91860   0.77423   0.13109   0.00000  Uiso   1.00
C526   C     0.93348   0.79839   0.26687   0.00000  Uiso   1.00
C527   C     0.90378   0.66519   0.09877   0.00000  Uiso   1.00
C528   C     0.91626   0.64069   0.95544   0.00000  Uiso   1.00
C529   C     0.93007   0.60377   0.01089   0.00000  Uiso   1.00
H530   H     0.89096   0.67545   0.57297   0.00000  Uiso   1.00
H531   H     0.83125   0.67523   0.60713   0.00000  Uiso   1.00
H532   H     0.92217   0.74066   0.67055   0.00000  Uiso   1.00
H533   H     0.91983   0.60714   0.49493   0.00000  Uiso   1.00
H534   H     0.76450   0.68026   0.56038   0.00000  Uiso   1.00
H535   H     0.95621   0.81822   0.69410   0.00000  Uiso   1.00
H536   H     0.95127   0.53667   0.32377   0.00000  Uiso   1.00
H537   H     0.88664   0.71602   0.92075   0.00000  Uiso   1.00
H538   H     0.82669   0.71803   0.91911   0.00000  Uiso   1.00
H539   H     0.91761   0.78346   0.98255   0.00000  Uiso   1.00
H540   H     0.91527   0.64994   0.80692   0.00000  Uiso   1.00
H541   H     0.76079   0.71500   0.00196   0.00000  Uiso   1.00
H542   H     0.95251   0.85296   0.13569   0.00000  Uiso   1.00
H543   H     0.94757   0.57141   0.76536   0.00000  Uiso   1.00
O544   O     0.72329   0.69823   0.29188   0.00000  Uiso   1.00
O545   O     0.97481   0.87923   0.46732   0.00000  Uiso   1.00
O546   O     0.96834   0.50983   0.98146   0.00000  Uiso   1.00
N547   N     0.77185   0.68815   0.42917   0.00000  Uiso   1.00
N548   N     0.95109   0.81715   0.55420   0.00000  Uiso   1.00
N549   N     0.94648   0.55392   0.20798   0.00000  Uiso   1.00
N550   N     0.76986   0.70685   0.12869   0.00000  Uiso   1.00
N551   N     0.94910   0.83584   0.25372   0.00000  Uiso   1.00
N552   N     0.94449   0.57261   0.90750   0.00000  Uiso   1.00
C553   C     0.11003   0.31526   0.42354   0.00000  Uiso   1.00
C554   C     0.14307   0.30975   0.35165   0.00000  Uiso   1.00
C555   C     0.16974   0.31554   0.45859   0.00000  Uiso   1.00
C556   C     0.19776   0.30894   0.36670   0.00000  Uiso   1.00
C557   C     0.24887   0.30220   0.28430   0.00000  Uiso   1.00
C558   C     0.09368   0.27420   0.38612   0.00000  Uiso   1.00
C559   C     0.07881   0.25009   0.52204   0.00000  Uiso   1.00
C560   C     0.06525   0.21357   0.45915   0.00000  Uiso   1.00
C561   C     0.03965   0.15164   0.43023   0.00000  Uiso   1.00
C562   C     0.09495   0.34675   0.29070   0.00000  Uiso   1.00
C563   C     0.08115   0.38363   0.34639   0.00000  Uiso   1.00
C564   C     0.06866   0.40819   0.20317   0.00000  Uiso   1.00
C565   C     0.04504   0.45890   0.02611   0.00000  Uiso   1.00
C566   C     0.11237   0.29327   0.07018   0.00000  Uiso   1.00
C567   C     0.14434   0.29781   0.15972   0.00000  Uiso   1.00
C568   C     0.17233   0.29121   0.06764   0.00000  Uiso   1.00
C569   C     0.19904   0.29698   0.17442   0.00000  Uiso   1.00
C570   C     0.09495   0.26226   0.19420   0.00000  Uiso   1.00
C571   C     0.08140   0.22577   0.13109   0.00000  Uiso   1.00
C572   C     0.06652   0.20161   0.26687   0.00000  Uiso   1.00
C573   C     0.09622   0.33481   0.09877   0.00000  Uiso   1.00
C574   C     0.08374   0.35931   0.95544   0.00000  Uiso   1.00
C575   C     0.06993   0.39623   0.01089   0.00000  Uiso   1.00
H576   H     0.10904   0.32455   0.57297   0.00000  Uiso   1.00
H577   H     0.16875   0.32477   0.60713   0.00000  Uiso   1.00
H578   H     0.07783   0.25934   0.67055   0.00000  Uiso   1.00
H579   H     0.08017   0.39286   0.49493   0.00000  Uiso   1.00
H580   H     0.23550   0.31974   0.56038   0.00000  Uiso   1.00
H581   H     0.04379   0.18178   0.69410   0.00000  Uiso   1.00
H582   H     0.04873   0.46333   0.32377   0.00000  Uiso   1.00
H583   H     0.11336   0.28398   0.92075   0.00000  Uiso   1.00
H584   H     0.17331   0.28197   0.91911   0.00000  Uiso   1.00
H585   H     0.08239   0.21654   0.98255   0.00000  Uiso   1.00
H586   H     0.08473   0.35006   0.80692   0.00000  Uiso   1.00
H587   H     0.23921   0.28500   0.00196   0.00000  Uiso   1.00
H588   H     0.04749   0.14704   0.13569   0.00000  Uiso   1.00
H589   H     0.05243   0.42859   0.76536   0.00000  Uiso   1.00
O590   O     0.27671   0.30177   0.29188   0.00000  Uiso   1.00
O591   O     0.02519   0.12077   0.46732   0.00000  Uiso   1.00
O592   O     0.03166   0.49017   0.98146   0.00000  Uiso   1.00
N593   N     0.22815   0.31185   0.42917   0.00000  Uiso   1.00
N594   N     0.04891   0.18285   0.55420   0.00000  Uiso   1.00
N595   N     0.05352   0.44608   0.20798   0.00000  Uiso   1.00
N596   N     0.23014   0.29315   0.12869   0.00000  Uiso   1.00
N597   N     0.05090   0.16416   0.25372   0.00000  Uiso   1.00
N598   N     0.05551   0.42739   0.90750   0.00000  Uiso   1.00
C599   C     0.11003   0.81526   0.92354   0.00000  Uiso   1.00
C600   C     0.14307   0.80975   0.85165   0.00000  Uiso   1.00
C601   C     0.16974   0.81554   0.95859   0.00000  Uiso   1.00
C602   C     0.19776   0.80894   0.86670   0.00000  Uiso   1.00
C603   C     0.24887   0.80220   0.78430   0.00000  Uiso   1.00
C604   C     0.09368   0.77420   0.88612   0.00000  Uiso   1.00
C605   C     0.07881   0.75009   0.02204   0.00000  Uiso   1.00
C606   C     0.06525   0.71357   0.95915   0.00000  Uiso   1.00
C607   C     0.03965   0.65164   0.93023   0.00000  Uiso   1.00
C608   C     0.09495   0.84675   0.79070   0.00000  Uiso   1.00
C609   C     0.08115   0.88363   0.84639   0.00000  Uiso   1.00
C610   C     0.06866   0.90819   0.70317   0.00000  Uiso   1.00
C611   C     0.04504   0.95890   0.52611   0.00000  Uiso   1.00
C612   C     0.11237   0.79327   0.57018   0.00000  Uiso   1.00
C613   C     0.14434   0.79781   0.65972   0.00000  Uiso   1.00
C614   C     0.17233   0.79121   0.56764   0.00000  Uiso   1.00
C615   C     0.19904   0.79698   0.67442   0.00000  Uiso   1.00
C616   C     0.09495   0.76226   0.69420   0.00000  Uiso   1.00
C617   C     0.08140   0.72577   0.63109   0.00000  Uiso   1.00
C618   C     0.06652   0.70161   0.76687   0.00000  Uiso   1.00
C619   C     0.09622   0.83481   0.59877   0.00000  Uiso   1.00
C620   C     0.08374   0.85931   0.45544   0.00000  Uiso   1.00
C621   C     0.06993   0.89623   0.51089   0.00000  Uiso   1.00
H622   H     0.10904   0.82455   0.07297   0.00000  Uiso   1.00
H623   H     0.16875   0.82477   0.10713   0.00000  Uiso   1.00
H624   H     0.07783   0.75934   0.17055   0.00000  Uiso   1.00
H625   H     0.08017   0.89286   0.99493   0.00000  Uiso   1.00
H626   H     0.23550   0.81974   0.06038   0.00000  Uiso   1.00
H627   H     0.04379   0.68178   0.19410   0.00000  Uiso   1.00
H628   H     0.04873   0.96333   0.82377   0.00000  Uiso   1.00
H629   H     0.11336   0.78398   0.42075   0.00000  Uiso   1.00
H630   H     0.17331   0.78197   0.41911   0.00000  Uiso   1.00
H631   H     0.08239   0.71654   0.48255   0.00000  Uiso   1.00
H632   H     0.08473   0.85006   0.30692   0.00000  Uiso   1.00
H633   H     0.23921   0.78500   0.50196   0.00000  Uiso   1.00
H634   H     0.04749   0.64704   0.63569   0.00000  Uiso   1.00
H635   H     0.05243   0.92859   0.26536   0.00000  Uiso   1.00
O636   O     0.27671   0.80177   0.79188   0.00000  Uiso   1.00
O637   O     0.02519   0.62077   0.96732   0.00000  Uiso   1.00
O638   O     0.03166   0.99017   0.48146   0.00000  Uiso   1.00
N639   N     0.22815   0.81185   0.92917   0.00000  Uiso   1.00
N640   N     0.04891   0.68285   0.05420   0.00000  Uiso   1.00
N641   N     0.05352   0.94608   0.70798   0.00000  Uiso   1.00
N642   N     0.23014   0.79315   0.62869   0.00000  Uiso   1.00
N643   N     0.05090   0.66416   0.75372   0.00000  Uiso   1.00
N644   N     0.05551   0.92739   0.40750   0.00000  Uiso   1.00
C645   C     0.61003   0.31526   0.92354   0.00000  Uiso   1.00
C646   C     0.64307   0.30975   0.85165   0.00000  Uiso   1.00
C647   C     0.66974   0.31554   0.95859   0.00000  Uiso   1.00
C648   C     0.69776   0.30894   0.86670   0.00000  Uiso   1.00
C649   C     0.74887   0.30220   0.78430   0.00000  Uiso   1.00
C650   C     0.59368   0.27420   0.88612   0.00000  Uiso   1.00
C651   C     0.57881   0.25009   0.02204   0.00000  Uiso   1.00
C652   C     0.56525   0.21357   0.95915   0.00000  Uiso   1.00
C653   C     0.53965   0.15164   0.93023   0.00000  Uiso   1.00
C654   C     0.59495   0.34675   0.79070   0.00000  Uiso   1.00
C655   C     0.58115   0.38363   0.84639   0.00000  Uiso   1.00
C656   C     0.56866   0.40819   0.70317   0.00000  Uiso   1.00
C657   C     0.54504   0.45890   0.52611   0.00000  Uiso   1.00
C658   C     0.61237   0.29327   0.57018   0.00000  Uiso   1.00
C659   C     0.64434   0.29781   0.65972   0.00000  Uiso   1.00
C660   C     0.67233   0.29121   0.56764   0.00000  Uiso   1.00
C661   C     0.69904   0.29698   0.67442   0.00000  Uiso   1.00
C662   C     0.59495   0.26226   0.69420   0.00000  Uiso   1.00
C663   C     0.58140   0.22577   0.63109   0.00000  Uiso   1.00
C664   C     0.56652   0.20161   0.76687   0.00000  Uiso   1.00
C665   C     0.59622   0.33481   0.59877   0.00000  Uiso   1.00
C666   C     0.58374   0.35931   0.45544   0.00000  Uiso   1.00
C667   C     0.56993   0.39623   0.51089   0.00000  Uiso   1.00
H668   H     0.60904   0.32455   0.07297   0.00000  Uiso   1.00
H669   H     0.66875   0.32477   0.10713   0.00000  Uiso   1.00
H670   H     0.57783   0.25934   0.17055   0.00000  Uiso   1.00
H671   H     0.58017   0.39286   0.99493   0.00000  Uiso   1.00
H672   H     0.73550   0.31974   0.06038   0.00000  Uiso   1.00
H673   H     0.54379   0.18178   0.19410   0.00000  Uiso   1.00
H674   H     0.54873   0.46333   0.82377   0.00000  Uiso   1.00
H675   H     0.61336   0.28398   0.42075   0.00000  Uiso   1.00
H676   H     0.67331   0.28197   0.41911   0.00000  Uiso   1.00
H677   H     0.58239   0.21654   0.48255   0.00000  Uiso   1.00
H678   H     0.58473   0.35006   0.30692   0.00000  Uiso   1.00
H679   H     0.73921   0.28500   0.50196   0.00000  Uiso   1.00
H680   H     0.54749   0.14704   0.63569   0.00000  Uiso   1.00
H681   H     0.55243   0.42859   0.26536   0.00000  Uiso   1.00
O682   O     0.77671   0.30177   0.79188   0.00000  Uiso   1.00
O683   O     0.52519   0.12077   0.96732   0.00000  Uiso   1.00
O684   O     0.53166   0.49017   0.48146   0.00000  Uiso   1.00
N685   N     0.72815   0.31185   0.92917   0.00000  Uiso   1.00
N686   N     0.54891   0.18285   0.05420   0.00000  Uiso   1.00
N687   N     0.55352   0.44608   0.70798   0.00000  Uiso   1.00
N688   N     0.73014   0.29315   0.62869   0.00000  Uiso   1.00
N689   N     0.55090   0.16416   0.75372   0.00000  Uiso   1.00
N690   N     0.55551   0.42739   0.40750   0.00000  Uiso   1.00
C691   C     0.61003   0.81526   0.42354   0.00000  Uiso   1.00
C692   C     0.64307   0.80975   0.35165   0.00000  Uiso   1.00
C693   C     0.66974   0.81554   0.45859   0.00000  Uiso   1.00
C694   C     0.69776   0.80894   0.36670   0.00000  Uiso   1.00
C695   C     0.74887   0.80220   0.28430   0.00000  Uiso   1.00
C696   C     0.59368   0.77420   0.38612   0.00000  Uiso   1.00
C697   C     0.57881   0.75009   0.52204   0.00000  Uiso   1.00
C698   C     0.56525   0.71357   0.45915   0.00000  Uiso   1.00
C699   C     0.53965   0.65164   0.43023   0.00000  Uiso   1.00
C700   C     0.59495   0.84675   0.29070   0.00000  Uiso   1.00
C701   C     0.58115   0.88363   0.34639   0.00000  Uiso   1.00
C702   C     0.56866   0.90819   0.20317   0.00000  Uiso   1.00
C703   C     0.54504   0.95890   0.02611   0.00000  Uiso   1.00
C704   C     0.61237   0.79327   0.07018   0.00000  Uiso   1.00
C705   C     0.64434   0.79781   0.15972   0.00000  Uiso   1.00
C706   C     0.67233   0.79121   0.06764   0.00000  Uiso   1.00
C707   C     0.69904   0.79698   0.17442   0.00000  Uiso   1.00
C708   C     0.59495   0.76226   0.19420   0.00000  Uiso   1.00
C709   C     0.58140   0.72577   0.13109   0.00000  Uiso   1.00
C710   C     0.56652   0.70161   0.26687   0.00000  Uiso   1.00
C711   C     0.59622   0.83481   0.09877   0.00000  Uiso   1.00
C712   C     0.58374   0.85931   0.95544   0.00000  Uiso   1.00
C713   C     0.56993   0.89623   0.01089   0.00000  Uiso   1.00
H714   H     0.60904   0.82455   0.57297   0.00000  Uiso   1.00
H715   H     0.66875   0.82477   0.60713   0.00000  Uiso   1.00
H716   H     0.57783   0.75934   0.67055   0.00000  Uiso   1.00
H717   H     0.58017   0.89286   0.49493   0.00000  Uiso   1.00
H718   H     0.73550   0.81974   0.56038   0.00000  Uiso   1.00
H719   H     0.54379   0.68178   0.69410   0.00000  Uiso   1.00
H720   H     0.54873   0.96333   0.32377   0.00000  Uiso   1.00
H721   H     0.61336   0.78398   0.92075   0.00000  Uiso   1.00
H722   H     0.67331   0.78197   0.91911   0.00000  Uiso   1.00
H723   H     0.58239   0.71654   0.98255   0.00000  Uiso   1.00
H724   H     0.58473   0.85006   0.80692   0.00000  Uiso   1.00
H725   H     0.73921   0.78500   0.00196   0.00000  Uiso   1.00
H726   H     0.54749   0.64704   0.13569   0.00000  Uiso   1.00
H727   H     0.55243   0.92859   0.76536   0.00000  Uiso   1.00
O728   O     0.77671   0.80177   0.29188   0.00000  Uiso   1.00
O729   O     0.52519   0.62077   0.46732   0.00000  Uiso   1.00
O730   O     0.53166   0.99017   0.98146   0.00000  Uiso   1.00
N731   N     0.72815   0.81185   0.42917   0.00000  Uiso   1.00
N732   N     0.54891   0.68285   0.55420   0.00000  Uiso   1.00
N733   N     0.55352   0.94608   0.20798   0.00000  Uiso   1.00
N734   N     0.73014   0.79315   0.12869   0.00000  Uiso   1.00
N735   N     0.55090   0.66416   0.25372   0.00000  Uiso   1.00
N736   N     0.55551   0.92739   0.90750   0.00000  Uiso   1.00
