data_job_02619
_audit_creation_date              2018-12-19
_audit_creation_method            'Materials Studio'
_symmetry_space_group_name_H-M    'P1'
_symmetry_Int_Tables_number       1
_symmetry_cell_setting            triclinic
loop_
_symmetry_equiv_pos_as_xyz
  x,y,z
_cell_length_a                    28.6131
_cell_length_b                    28.6131
_cell_length_c                    20.2721
_cell_angle_alpha                 90.0000
_cell_angle_beta                  90.0000
_cell_angle_gamma                 90.0000
loop_
_atom_site_label
_atom_site_type_symbol
_atom_site_fract_x
_atom_site_fract_y
_atom_site_fract_z
_atom_site_U_iso_or_equiv
_atom_site_adp_type
_atom_site_occupancy
C1     C     0.48995   0.41396   0.34290   0.00000  Uiso   1.00
C2     C     0.44058   0.43312   0.35131   0.00000  Uiso   1.00
C3     C     0.42691   0.46666   0.39685   0.00000  Uiso   1.00
C4     C     0.38012   0.47951   0.39673   0.00000  Uiso   1.00
C5     C     0.30831   0.51228   0.41653   0.00000  Uiso   1.00
C6     C     0.48601   0.36111   0.35081   0.00000  Uiso   1.00
C7     C     0.51055   0.33411   0.39592   0.00000  Uiso   1.00
C8     C     0.50201   0.28634   0.39537   0.00000  Uiso   1.00
C9     C     0.50076   0.20731   0.41436   0.00000  Uiso   1.00
C10    C     0.50297   0.42243   0.27095   0.00000  Uiso   1.00
C11    C     0.54179   0.44697   0.24889   0.00000  Uiso   1.00
C12    C     0.54753   0.45081   0.18110   0.00000  Uiso   1.00
C13    C     0.57262   0.46699   0.07608   0.00000  Uiso   1.00
C14    C     0.43116   0.37715   0.26172   0.00000  Uiso   1.00
C15    C     0.40864   0.41312   0.30722   0.00000  Uiso   1.00
C16    C     0.36186   0.42593   0.30703   0.00000  Uiso   1.00
C17    C     0.34813   0.45948   0.35256   0.00000  Uiso   1.00
C18    C     0.45408   0.34111   0.30672   0.00000  Uiso   1.00
C19    C     0.44550   0.29338   0.30611   0.00000  Uiso   1.00
C20    C     0.47002   0.26631   0.35120   0.00000  Uiso   1.00
C21    C     0.47104   0.40243   0.22685   0.00000  Uiso   1.00
C22    C     0.47673   0.40624   0.15908   0.00000  Uiso   1.00
C23    C     0.51554   0.43078   0.13693   0.00000  Uiso   1.00
H24    H     0.51481   0.42953   0.37723   0.00000  Uiso   1.00
H25    H     0.45163   0.48212   0.43097   0.00000  Uiso   1.00
H26    H     0.53526   0.34959   0.43003   0.00000  Uiso   1.00
H27    H     0.56649   0.46243   0.28303   0.00000  Uiso   1.00
H28    H     0.36750   0.53160   0.47111   0.00000  Uiso   1.00
H29    H     0.54385   0.25215   0.46913   0.00000  Uiso   1.00
H30    H     0.60970   0.49010   0.15915   0.00000  Uiso   1.00
H31    H     0.40630   0.36158   0.22739   0.00000  Uiso   1.00
H32    H     0.33716   0.41045   0.27291   0.00000  Uiso   1.00
H33    H     0.42079   0.27791   0.27198   0.00000  Uiso   1.00
H34    H     0.45202   0.39076   0.12497   0.00000  Uiso   1.00
H35    H     0.27459   0.47343   0.34283   0.00000  Uiso   1.00
H36    H     0.45094   0.19397   0.34085   0.00000  Uiso   1.00
H37    H     0.51679   0.43193   0.03086   0.00000  Uiso   1.00
O38    O     0.27752   0.53588   0.43963   0.00000  Uiso   1.00
O39    O     0.50889   0.16925   0.43702   0.00000  Uiso   1.00
O40    O     0.59528   0.48144   0.03033   0.00000  Uiso   1.00
N41    N     0.35512   0.51121   0.43467   0.00000  Uiso   1.00
N42    N     0.51999   0.24994   0.43282   0.00000  Uiso   1.00
N43    N     0.58157   0.47240   0.14301   0.00000  Uiso   1.00
N44    N     0.30513   0.47991   0.36564   0.00000  Uiso   1.00
N45    N     0.47000   0.21864   0.36379   0.00000  Uiso   1.00
N46    N     0.53157   0.44109   0.07398   0.00000  Uiso   1.00
C47    C     0.98995   0.91396   0.84290   0.00000  Uiso   1.00
C48    C     0.94058   0.93312   0.85131   0.00000  Uiso   1.00
C49    C     0.92691   0.96666   0.89685   0.00000  Uiso   1.00
C50    C     0.88012   0.97951   0.89673   0.00000  Uiso   1.00
C51    C     0.80831   0.01228   0.91653   0.00000  Uiso   1.00
C52    C     0.98601   0.86111   0.85081   0.00000  Uiso   1.00
C53    C     0.01055   0.83411   0.89592   0.00000  Uiso   1.00
C54    C     0.00201   0.78634   0.89537   0.00000  Uiso   1.00
C55    C     0.00076   0.70731   0.91436   0.00000  Uiso   1.00
C56    C     0.00297   0.92243   0.77095   0.00000  Uiso   1.00
C57    C     0.04179   0.94697   0.74889   0.00000  Uiso   1.00
C58    C     0.04753   0.95081   0.68110   0.00000  Uiso   1.00
C59    C     0.07262   0.96699   0.57608   0.00000  Uiso   1.00
C60    C     0.93116   0.87715   0.76172   0.00000  Uiso   1.00
C61    C     0.90864   0.91312   0.80722   0.00000  Uiso   1.00
C62    C     0.86186   0.92593   0.80703   0.00000  Uiso   1.00
C63    C     0.84813   0.95948   0.85256   0.00000  Uiso   1.00
C64    C     0.95408   0.84111   0.80672   0.00000  Uiso   1.00
C65    C     0.94550   0.79338   0.80611   0.00000  Uiso   1.00
C66    C     0.97002   0.76631   0.85120   0.00000  Uiso   1.00
C67    C     0.97104   0.90243   0.72685   0.00000  Uiso   1.00
C68    C     0.97673   0.90624   0.65908   0.00000  Uiso   1.00
C69    C     0.01554   0.93078   0.63693   0.00000  Uiso   1.00
H70    H     0.01481   0.92953   0.87723   0.00000  Uiso   1.00
H71    H     0.95163   0.98212   0.93097   0.00000  Uiso   1.00
H72    H     0.03526   0.84959   0.93003   0.00000  Uiso   1.00
H73    H     0.06649   0.96243   0.78303   0.00000  Uiso   1.00
H74    H     0.86750   0.03160   0.97111   0.00000  Uiso   1.00
H75    H     0.04385   0.75215   0.96913   0.00000  Uiso   1.00
H76    H     0.10970   0.99010   0.65915   0.00000  Uiso   1.00
H77    H     0.90630   0.86158   0.72739   0.00000  Uiso   1.00
H78    H     0.83716   0.91045   0.77291   0.00000  Uiso   1.00
H79    H     0.92079   0.77791   0.77198   0.00000  Uiso   1.00
H80    H     0.95202   0.89076   0.62497   0.00000  Uiso   1.00
H81    H     0.77459   0.97343   0.84283   0.00000  Uiso   1.00
H82    H     0.95094   0.69397   0.84085   0.00000  Uiso   1.00
H83    H     0.01679   0.93193   0.53086   0.00000  Uiso   1.00
O84    O     0.77752   0.03588   0.93963   0.00000  Uiso   1.00
O85    O     0.00889   0.66925   0.93702   0.00000  Uiso   1.00
O86    O     0.09528   0.98144   0.53033   0.00000  Uiso   1.00
N87    N     0.85512   0.01121   0.93467   0.00000  Uiso   1.00
N88    N     0.01999   0.74994   0.93282   0.00000  Uiso   1.00
N89    N     0.08157   0.97240   0.64301   0.00000  Uiso   1.00
N90    N     0.80513   0.97991   0.86564   0.00000  Uiso   1.00
N91    N     0.97000   0.71864   0.86379   0.00000  Uiso   1.00
N92    N     0.03157   0.94109   0.57398   0.00000  Uiso   1.00
C93    C     0.01005   0.08604   0.84290   0.00000  Uiso   1.00
C94    C     0.05942   0.06688   0.85131   0.00000  Uiso   1.00
C95    C     0.07309   0.03334   0.89685   0.00000  Uiso   1.00
C96    C     0.11988   0.02049   0.89673   0.00000  Uiso   1.00
C97    C     0.19169   0.98772   0.91653   0.00000  Uiso   1.00
C98    C     0.01399   0.13889   0.85081   0.00000  Uiso   1.00
C99    C     0.98945   0.16589   0.89592   0.00000  Uiso   1.00
C100   C     0.99799   0.21366   0.89537   0.00000  Uiso   1.00
C101   C     0.99924   0.29269   0.91436   0.00000  Uiso   1.00
C102   C     0.99703   0.07757   0.77095   0.00000  Uiso   1.00
C103   C     0.95821   0.05303   0.74889   0.00000  Uiso   1.00
C104   C     0.95247   0.04919   0.68110   0.00000  Uiso   1.00
C105   C     0.92738   0.03301   0.57608   0.00000  Uiso   1.00
C106   C     0.06884   0.12285   0.76172   0.00000  Uiso   1.00
C107   C     0.09136   0.08688   0.80722   0.00000  Uiso   1.00
C108   C     0.13814   0.07407   0.80703   0.00000  Uiso   1.00
C109   C     0.15187   0.04052   0.85256   0.00000  Uiso   1.00
C110   C     0.04592   0.15889   0.80672   0.00000  Uiso   1.00
C111   C     0.05450   0.20662   0.80611   0.00000  Uiso   1.00
C112   C     0.02998   0.23369   0.85120   0.00000  Uiso   1.00
C113   C     0.02896   0.09757   0.72685   0.00000  Uiso   1.00
C114   C     0.02327   0.09376   0.65908   0.00000  Uiso   1.00
C115   C     0.98446   0.06922   0.63693   0.00000  Uiso   1.00
H116   H     0.98519   0.07047   0.87723   0.00000  Uiso   1.00
H117   H     0.04837   0.01788   0.93097   0.00000  Uiso   1.00
H118   H     0.96474   0.15041   0.93003   0.00000  Uiso   1.00
H119   H     0.93351   0.03757   0.78303   0.00000  Uiso   1.00
H120   H     0.13250   0.96840   0.97111   0.00000  Uiso   1.00
H121   H     0.95615   0.24785   0.96913   0.00000  Uiso   1.00
H122   H     0.89030   0.00990   0.65915   0.00000  Uiso   1.00
H123   H     0.09370   0.13842   0.72739   0.00000  Uiso   1.00
H124   H     0.16284   0.08955   0.77291   0.00000  Uiso   1.00
H125   H     0.07921   0.22209   0.77198   0.00000  Uiso   1.00
H126   H     0.04798   0.10924   0.62497   0.00000  Uiso   1.00
H127   H     0.22541   0.02657   0.84283   0.00000  Uiso   1.00
H128   H     0.04906   0.30603   0.84085   0.00000  Uiso   1.00
H129   H     0.98321   0.06807   0.53086   0.00000  Uiso   1.00
O130   O     0.22248   0.96412   0.93963   0.00000  Uiso   1.00
O131   O     0.99111   0.33075   0.93702   0.00000  Uiso   1.00
O132   O     0.90472   0.01856   0.53033   0.00000  Uiso   1.00
N133   N     0.14488   0.98879   0.93467   0.00000  Uiso   1.00
N134   N     0.98001   0.25006   0.93282   0.00000  Uiso   1.00
N135   N     0.91843   0.02760   0.64301   0.00000  Uiso   1.00
N136   N     0.19487   0.02009   0.86564   0.00000  Uiso   1.00
N137   N     0.03000   0.28136   0.86379   0.00000  Uiso   1.00
N138   N     0.96843   0.05891   0.57398   0.00000  Uiso   1.00
C139   C     0.51005   0.58604   0.34290   0.00000  Uiso   1.00
C140   C     0.55942   0.56688   0.35131   0.00000  Uiso   1.00
C141   C     0.57309   0.53334   0.39685   0.00000  Uiso   1.00
C142   C     0.61988   0.52049   0.39673   0.00000  Uiso   1.00
C143   C     0.69169   0.48772   0.41653   0.00000  Uiso   1.00
C144   C     0.51399   0.63889   0.35081   0.00000  Uiso   1.00
C145   C     0.48945   0.66589   0.39592   0.00000  Uiso   1.00
C146   C     0.49799   0.71366   0.39537   0.00000  Uiso   1.00
C147   C     0.49924   0.79269   0.41436   0.00000  Uiso   1.00
C148   C     0.49703   0.57757   0.27095   0.00000  Uiso   1.00
C149   C     0.45821   0.55303   0.24889   0.00000  Uiso   1.00
C150   C     0.45247   0.54919   0.18110   0.00000  Uiso   1.00
C151   C     0.42738   0.53301   0.07608   0.00000  Uiso   1.00
C152   C     0.56884   0.62285   0.26172   0.00000  Uiso   1.00
C153   C     0.59136   0.58688   0.30722   0.00000  Uiso   1.00
C154   C     0.63814   0.57407   0.30703   0.00000  Uiso   1.00
C155   C     0.65187   0.54052   0.35256   0.00000  Uiso   1.00
C156   C     0.54592   0.65889   0.30672   0.00000  Uiso   1.00
C157   C     0.55450   0.70662   0.30611   0.00000  Uiso   1.00
C158   C     0.52998   0.73369   0.35120   0.00000  Uiso   1.00
C159   C     0.52896   0.59757   0.22685   0.00000  Uiso   1.00
C160   C     0.52327   0.59376   0.15908   0.00000  Uiso   1.00
C161   C     0.48446   0.56922   0.13693   0.00000  Uiso   1.00
H162   H     0.48519   0.57047   0.37723   0.00000  Uiso   1.00
H163   H     0.54837   0.51788   0.43097   0.00000  Uiso   1.00
H164   H     0.46474   0.65041   0.43003   0.00000  Uiso   1.00
H165   H     0.43351   0.53757   0.28303   0.00000  Uiso   1.00
H166   H     0.63250   0.46840   0.47111   0.00000  Uiso   1.00
H167   H     0.45615   0.74785   0.46913   0.00000  Uiso   1.00
H168   H     0.39030   0.50990   0.15915   0.00000  Uiso   1.00
H169   H     0.59370   0.63842   0.22739   0.00000  Uiso   1.00
H170   H     0.66284   0.58955   0.27291   0.00000  Uiso   1.00
H171   H     0.57921   0.72209   0.27198   0.00000  Uiso   1.00
H172   H     0.54798   0.60924   0.12497   0.00000  Uiso   1.00
H173   H     0.72541   0.52657   0.34283   0.00000  Uiso   1.00
H174   H     0.54906   0.80603   0.34085   0.00000  Uiso   1.00
H175   H     0.48321   0.56807   0.03086   0.00000  Uiso   1.00
O176   O     0.72248   0.46412   0.43963   0.00000  Uiso   1.00
O177   O     0.49111   0.83075   0.43702   0.00000  Uiso   1.00
O178   O     0.40472   0.51856   0.03033   0.00000  Uiso   1.00
N179   N     0.64488   0.48879   0.43467   0.00000  Uiso   1.00
N180   N     0.48001   0.75006   0.43282   0.00000  Uiso   1.00
N181   N     0.41843   0.52760   0.14301   0.00000  Uiso   1.00
N182   N     0.69487   0.52009   0.36564   0.00000  Uiso   1.00
N183   N     0.53000   0.78136   0.36379   0.00000  Uiso   1.00
N184   N     0.46843   0.55891   0.07398   0.00000  Uiso   1.00
C185   C     0.58604   0.98995   0.59290   0.00000  Uiso   1.00
C186   C     0.56688   0.94058   0.60131   0.00000  Uiso   1.00
C187   C     0.53334   0.92691   0.64685   0.00000  Uiso   1.00
C188   C     0.52049   0.88012   0.64673   0.00000  Uiso   1.00
C189   C     0.48772   0.80831   0.66653   0.00000  Uiso   1.00
C190   C     0.63889   0.98601   0.60081   0.00000  Uiso   1.00
C191   C     0.66589   0.01055   0.64592   0.00000  Uiso   1.00
C192   C     0.71366   0.00201   0.64537   0.00000  Uiso   1.00
C193   C     0.79269   0.00076   0.66436   0.00000  Uiso   1.00
C194   C     0.57757   0.00297   0.52095   0.00000  Uiso   1.00
C195   C     0.55303   0.04179   0.49889   0.00000  Uiso   1.00
C196   C     0.54919   0.04753   0.43110   0.00000  Uiso   1.00
C197   C     0.53301   0.07262   0.32608   0.00000  Uiso   1.00
C198   C     0.62285   0.93116   0.51172   0.00000  Uiso   1.00
C199   C     0.58688   0.90864   0.55722   0.00000  Uiso   1.00
C200   C     0.57407   0.86186   0.55703   0.00000  Uiso   1.00
C201   C     0.54052   0.84813   0.60256   0.00000  Uiso   1.00
C202   C     0.65889   0.95408   0.55672   0.00000  Uiso   1.00
C203   C     0.70662   0.94550   0.55611   0.00000  Uiso   1.00
C204   C     0.73369   0.97002   0.60120   0.00000  Uiso   1.00
C205   C     0.59757   0.97104   0.47685   0.00000  Uiso   1.00
C206   C     0.59376   0.97673   0.40908   0.00000  Uiso   1.00
C207   C     0.56922   0.01554   0.38693   0.00000  Uiso   1.00
H208   H     0.57047   0.01481   0.62723   0.00000  Uiso   1.00
H209   H     0.51788   0.95163   0.68097   0.00000  Uiso   1.00
H210   H     0.65041   0.03526   0.68003   0.00000  Uiso   1.00
H211   H     0.53757   0.06649   0.53303   0.00000  Uiso   1.00
H212   H     0.46840   0.86750   0.72111   0.00000  Uiso   1.00
H213   H     0.74785   0.04385   0.71913   0.00000  Uiso   1.00
H214   H     0.50990   0.10970   0.40915   0.00000  Uiso   1.00
H215   H     0.63842   0.90630   0.47739   0.00000  Uiso   1.00
H216   H     0.58955   0.83716   0.52291   0.00000  Uiso   1.00
H217   H     0.72209   0.92079   0.52198   0.00000  Uiso   1.00
H218   H     0.60924   0.95202   0.37497   0.00000  Uiso   1.00
H219   H     0.52657   0.77459   0.59283   0.00000  Uiso   1.00
H220   H     0.80603   0.95094   0.59085   0.00000  Uiso   1.00
H221   H     0.56807   0.01679   0.28086   0.00000  Uiso   1.00
O222   O     0.46412   0.77752   0.68963   0.00000  Uiso   1.00
O223   O     0.83075   0.00889   0.68702   0.00000  Uiso   1.00
O224   O     0.51856   0.09528   0.28033   0.00000  Uiso   1.00
N225   N     0.48879   0.85512   0.68467   0.00000  Uiso   1.00
N226   N     0.75006   0.01999   0.68282   0.00000  Uiso   1.00
N227   N     0.52760   0.08157   0.39301   0.00000  Uiso   1.00
N228   N     0.52009   0.80513   0.61564   0.00000  Uiso   1.00
N229   N     0.78136   0.97000   0.61379   0.00000  Uiso   1.00
N230   N     0.55891   0.03157   0.32398   0.00000  Uiso   1.00
C231   C     0.08604   0.48995   0.09290   0.00000  Uiso   1.00
C232   C     0.06688   0.44058   0.10131   0.00000  Uiso   1.00
C233   C     0.03334   0.42691   0.14685   0.00000  Uiso   1.00
C234   C     0.02049   0.38012   0.14673   0.00000  Uiso   1.00
C235   C     0.98772   0.30831   0.16653   0.00000  Uiso   1.00
C236   C     0.13889   0.48601   0.10081   0.00000  Uiso   1.00
C237   C     0.16589   0.51055   0.14592   0.00000  Uiso   1.00
C238   C     0.21366   0.50201   0.14537   0.00000  Uiso   1.00
C239   C     0.29269   0.50076   0.16436   0.00000  Uiso   1.00
C240   C     0.07757   0.50297   0.02095   0.00000  Uiso   1.00
C241   C     0.05303   0.54179   0.99889   0.00000  Uiso   1.00
C242   C     0.04919   0.54753   0.93110   0.00000  Uiso   1.00
C243   C     0.03301   0.57262   0.82608   0.00000  Uiso   1.00
C244   C     0.12285   0.43116   0.01172   0.00000  Uiso   1.00
C245   C     0.08688   0.40864   0.05722   0.00000  Uiso   1.00
C246   C     0.07407   0.36186   0.05703   0.00000  Uiso   1.00
C247   C     0.04052   0.34813   0.10256   0.00000  Uiso   1.00
C248   C     0.15889   0.45408   0.05672   0.00000  Uiso   1.00
C249   C     0.20662   0.44550   0.05611   0.00000  Uiso   1.00
C250   C     0.23369   0.47002   0.10120   0.00000  Uiso   1.00
C251   C     0.09757   0.47104   0.97685   0.00000  Uiso   1.00
C252   C     0.09376   0.47673   0.90908   0.00000  Uiso   1.00
C253   C     0.06922   0.51554   0.88693   0.00000  Uiso   1.00
H254   H     0.07047   0.51481   0.12723   0.00000  Uiso   1.00
H255   H     0.01788   0.45163   0.18097   0.00000  Uiso   1.00
H256   H     0.15041   0.53526   0.18003   0.00000  Uiso   1.00
H257   H     0.03757   0.56649   0.03303   0.00000  Uiso   1.00
H258   H     0.96840   0.36750   0.22111   0.00000  Uiso   1.00
H259   H     0.24785   0.54385   0.21913   0.00000  Uiso   1.00
H260   H     0.00990   0.60970   0.90915   0.00000  Uiso   1.00
H261   H     0.13842   0.40630   0.97739   0.00000  Uiso   1.00
H262   H     0.08955   0.33716   0.02291   0.00000  Uiso   1.00
H263   H     0.22209   0.42079   0.02198   0.00000  Uiso   1.00
H264   H     0.10924   0.45202   0.87497   0.00000  Uiso   1.00
H265   H     0.02657   0.27459   0.09283   0.00000  Uiso   1.00
H266   H     0.30603   0.45094   0.09085   0.00000  Uiso   1.00
H267   H     0.06807   0.51679   0.78086   0.00000  Uiso   1.00
O268   O     0.96412   0.27752   0.18963   0.00000  Uiso   1.00
O269   O     0.33075   0.50889   0.18702   0.00000  Uiso   1.00
O270   O     0.01856   0.59528   0.78033   0.00000  Uiso   1.00
N271   N     0.98879   0.35512   0.18467   0.00000  Uiso   1.00
N272   N     0.25006   0.51999   0.18282   0.00000  Uiso   1.00
N273   N     0.02760   0.58157   0.89301   0.00000  Uiso   1.00
N274   N     0.02009   0.30513   0.11564   0.00000  Uiso   1.00
N275   N     0.28136   0.47000   0.11379   0.00000  Uiso   1.00
N276   N     0.05891   0.53157   0.82398   0.00000  Uiso   1.00
C277   C     0.91396   0.51005   0.09290   0.00000  Uiso   1.00
C278   C     0.93312   0.55942   0.10131   0.00000  Uiso   1.00
C279   C     0.96666   0.57309   0.14685   0.00000  Uiso   1.00
C280   C     0.97951   0.61988   0.14673   0.00000  Uiso   1.00
C281   C     0.01228   0.69169   0.16653   0.00000  Uiso   1.00
C282   C     0.86111   0.51399   0.10081   0.00000  Uiso   1.00
C283   C     0.83411   0.48945   0.14592   0.00000  Uiso   1.00
C284   C     0.78634   0.49799   0.14537   0.00000  Uiso   1.00
C285   C     0.70731   0.49924   0.16436   0.00000  Uiso   1.00
C286   C     0.92243   0.49703   0.02095   0.00000  Uiso   1.00
C287   C     0.94697   0.45821   0.99889   0.00000  Uiso   1.00
C288   C     0.95081   0.45247   0.93110   0.00000  Uiso   1.00
C289   C     0.96699   0.42738   0.82608   0.00000  Uiso   1.00
C290   C     0.87715   0.56884   0.01172   0.00000  Uiso   1.00
C291   C     0.91312   0.59136   0.05722   0.00000  Uiso   1.00
C292   C     0.92593   0.63814   0.05703   0.00000  Uiso   1.00
C293   C     0.95948   0.65187   0.10256   0.00000  Uiso   1.00
C294   C     0.84111   0.54592   0.05672   0.00000  Uiso   1.00
C295   C     0.79338   0.55450   0.05611   0.00000  Uiso   1.00
C296   C     0.76631   0.52998   0.10120   0.00000  Uiso   1.00
C297   C     0.90243   0.52896   0.97685   0.00000  Uiso   1.00
C298   C     0.90624   0.52327   0.90908   0.00000  Uiso   1.00
C299   C     0.93078   0.48446   0.88693   0.00000  Uiso   1.00
H300   H     0.92953   0.48519   0.12723   0.00000  Uiso   1.00
H301   H     0.98212   0.54837   0.18097   0.00000  Uiso   1.00
H302   H     0.84959   0.46474   0.18003   0.00000  Uiso   1.00
H303   H     0.96243   0.43351   0.03303   0.00000  Uiso   1.00
H304   H     0.03160   0.63250   0.22111   0.00000  Uiso   1.00
H305   H     0.75215   0.45615   0.21913   0.00000  Uiso   1.00
H306   H     0.99010   0.39030   0.90915   0.00000  Uiso   1.00
H307   H     0.86158   0.59370   0.97739   0.00000  Uiso   1.00
H308   H     0.91045   0.66284   0.02291   0.00000  Uiso   1.00
H309   H     0.77791   0.57921   0.02198   0.00000  Uiso   1.00
H310   H     0.89076   0.54798   0.87497   0.00000  Uiso   1.00
H311   H     0.97343   0.72541   0.09283   0.00000  Uiso   1.00
H312   H     0.69397   0.54906   0.09085   0.00000  Uiso   1.00
H313   H     0.93193   0.48321   0.78086   0.00000  Uiso   1.00
O314   O     0.03588   0.72248   0.18963   0.00000  Uiso   1.00
O315   O     0.66925   0.49111   0.18702   0.00000  Uiso   1.00
O316   O     0.98144   0.40472   0.78033   0.00000  Uiso   1.00
N317   N     0.01121   0.64488   0.18467   0.00000  Uiso   1.00
N318   N     0.74994   0.48001   0.18282   0.00000  Uiso   1.00
N319   N     0.97240   0.41843   0.89301   0.00000  Uiso   1.00
N320   N     0.97991   0.69487   0.11564   0.00000  Uiso   1.00
N321   N     0.71864   0.53000   0.11379   0.00000  Uiso   1.00
N322   N     0.94109   0.46843   0.82398   0.00000  Uiso   1.00
C323   C     0.41396   0.01005   0.59290   0.00000  Uiso   1.00
C324   C     0.43312   0.05942   0.60131   0.00000  Uiso   1.00
C325   C     0.46666   0.07309   0.64685   0.00000  Uiso   1.00
C326   C     0.47951   0.11988   0.64673   0.00000  Uiso   1.00
C327   C     0.51228   0.19169   0.66653   0.00000  Uiso   1.00
C328   C     0.36111   0.01399   0.60081   0.00000  Uiso   1.00
C329   C     0.33411   0.98945   0.64592   0.00000  Uiso   1.00
C330   C     0.28634   0.99799   0.64537   0.00000  Uiso   1.00
C331   C     0.20731   0.99924   0.66436   0.00000  Uiso   1.00
C332   C     0.42243   0.99703   0.52095   0.00000  Uiso   1.00
C333   C     0.44697   0.95821   0.49889   0.00000  Uiso   1.00
C334   C     0.45081   0.95247   0.43110   0.00000  Uiso   1.00
C335   C     0.46699   0.92738   0.32608   0.00000  Uiso   1.00
C336   C     0.37715   0.06884   0.51172   0.00000  Uiso   1.00
C337   C     0.41312   0.09136   0.55722   0.00000  Uiso   1.00
C338   C     0.42593   0.13814   0.55703   0.00000  Uiso   1.00
C339   C     0.45948   0.15187   0.60256   0.00000  Uiso   1.00
C340   C     0.34111   0.04592   0.55672   0.00000  Uiso   1.00
C341   C     0.29338   0.05450   0.55611   0.00000  Uiso   1.00
C342   C     0.26631   0.02998   0.60120   0.00000  Uiso   1.00
C343   C     0.40243   0.02896   0.47685   0.00000  Uiso   1.00
C344   C     0.40624   0.02327   0.40908   0.00000  Uiso   1.00
C345   C     0.43078   0.98446   0.38693   0.00000  Uiso   1.00
H346   H     0.42953   0.98519   0.62723   0.00000  Uiso   1.00
H347   H     0.48212   0.04837   0.68097   0.00000  Uiso   1.00
H348   H     0.34959   0.96474   0.68003   0.00000  Uiso   1.00
H349   H     0.46243   0.93351   0.53303   0.00000  Uiso   1.00
H350   H     0.53160   0.13250   0.72111   0.00000  Uiso   1.00
H351   H     0.25215   0.95615   0.71913   0.00000  Uiso   1.00
H352   H     0.49010   0.89030   0.40915   0.00000  Uiso   1.00
H353   H     0.36158   0.09370   0.47739   0.00000  Uiso   1.00
H354   H     0.41045   0.16284   0.52291   0.00000  Uiso   1.00
H355   H     0.27791   0.07921   0.52198   0.00000  Uiso   1.00
H356   H     0.39076   0.04798   0.37497   0.00000  Uiso   1.00
H357   H     0.47343   0.22541   0.59283   0.00000  Uiso   1.00
H358   H     0.19397   0.04906   0.59085   0.00000  Uiso   1.00
H359   H     0.43193   0.98321   0.28086   0.00000  Uiso   1.00
O360   O     0.53588   0.22248   0.68963   0.00000  Uiso   1.00
O361   O     0.16925   0.99111   0.68702   0.00000  Uiso   1.00
O362   O     0.48144   0.90472   0.28033   0.00000  Uiso   1.00
N363   N     0.51121   0.14488   0.68467   0.00000  Uiso   1.00
N364   N     0.24994   0.98001   0.68282   0.00000  Uiso   1.00
N365   N     0.47240   0.91843   0.39301   0.00000  Uiso   1.00
N366   N     0.47991   0.19487   0.61564   0.00000  Uiso   1.00
N367   N     0.21864   0.03000   0.61379   0.00000  Uiso   1.00
N368   N     0.44109   0.96843   0.32398   0.00000  Uiso   1.00
C369   C     0.51005   0.08604   0.90710   0.00000  Uiso   1.00
C370   C     0.55942   0.06688   0.89869   0.00000  Uiso   1.00
C371   C     0.57309   0.03334   0.85315   0.00000  Uiso   1.00
C372   C     0.61988   0.02049   0.85327   0.00000  Uiso   1.00
C373   C     0.69169   0.98772   0.83347   0.00000  Uiso   1.00
C374   C     0.51399   0.13889   0.89919   0.00000  Uiso   1.00
C375   C     0.48945   0.16589   0.85408   0.00000  Uiso   1.00
C376   C     0.49799   0.21366   0.85463   0.00000  Uiso   1.00
C377   C     0.49924   0.29269   0.83564   0.00000  Uiso   1.00
C378   C     0.49703   0.07757   0.97905   0.00000  Uiso   1.00
C379   C     0.45821   0.05303   0.00111   0.00000  Uiso   1.00
C380   C     0.45247   0.04919   0.06890   0.00000  Uiso   1.00
C381   C     0.42738   0.03301   0.17392   0.00000  Uiso   1.00
C382   C     0.56884   0.12285   0.98828   0.00000  Uiso   1.00
C383   C     0.59136   0.08688   0.94278   0.00000  Uiso   1.00
C384   C     0.63814   0.07407   0.94297   0.00000  Uiso   1.00
C385   C     0.65187   0.04052   0.89744   0.00000  Uiso   1.00
C386   C     0.54592   0.15889   0.94328   0.00000  Uiso   1.00
C387   C     0.55450   0.20662   0.94389   0.00000  Uiso   1.00
C388   C     0.52998   0.23369   0.89880   0.00000  Uiso   1.00
C389   C     0.52896   0.09757   0.02315   0.00000  Uiso   1.00
C390   C     0.52327   0.09376   0.09092   0.00000  Uiso   1.00
C391   C     0.48446   0.06922   0.11307   0.00000  Uiso   1.00
H392   H     0.48519   0.07047   0.87277   0.00000  Uiso   1.00
H393   H     0.54837   0.01788   0.81903   0.00000  Uiso   1.00
H394   H     0.46474   0.15041   0.81997   0.00000  Uiso   1.00
H395   H     0.43351   0.03757   0.96697   0.00000  Uiso   1.00
H396   H     0.63250   0.96840   0.77889   0.00000  Uiso   1.00
H397   H     0.45615   0.24785   0.78087   0.00000  Uiso   1.00
H398   H     0.39030   0.00990   0.09085   0.00000  Uiso   1.00
H399   H     0.59370   0.13842   0.02261   0.00000  Uiso   1.00
H400   H     0.66284   0.08955   0.97709   0.00000  Uiso   1.00
H401   H     0.57921   0.22209   0.97802   0.00000  Uiso   1.00
H402   H     0.54798   0.10924   0.12503   0.00000  Uiso   1.00
H403   H     0.72541   0.02657   0.90717   0.00000  Uiso   1.00
H404   H     0.54906   0.30603   0.90915   0.00000  Uiso   1.00
H405   H     0.48321   0.06807   0.21914   0.00000  Uiso   1.00
O406   O     0.72248   0.96412   0.81037   0.00000  Uiso   1.00
O407   O     0.49111   0.33075   0.81298   0.00000  Uiso   1.00
O408   O     0.40472   0.01856   0.21967   0.00000  Uiso   1.00
N409   N     0.64488   0.98879   0.81533   0.00000  Uiso   1.00
N410   N     0.48001   0.25006   0.81718   0.00000  Uiso   1.00
N411   N     0.41843   0.02760   0.10699   0.00000  Uiso   1.00
N412   N     0.69487   0.02009   0.88436   0.00000  Uiso   1.00
N413   N     0.53000   0.28136   0.88621   0.00000  Uiso   1.00
N414   N     0.46843   0.05891   0.17602   0.00000  Uiso   1.00
C415   C     0.01005   0.58604   0.40710   0.00000  Uiso   1.00
C416   C     0.05942   0.56688   0.39869   0.00000  Uiso   1.00
C417   C     0.07309   0.53334   0.35315   0.00000  Uiso   1.00
C418   C     0.11988   0.52049   0.35327   0.00000  Uiso   1.00
C419   C     0.19169   0.48772   0.33347   0.00000  Uiso   1.00
C420   C     0.01399   0.63889   0.39919   0.00000  Uiso   1.00
C421   C     0.98945   0.66589   0.35408   0.00000  Uiso   1.00
C422   C     0.99799   0.71366   0.35463   0.00000  Uiso   1.00
C423   C     0.99924   0.79269   0.33564   0.00000  Uiso   1.00
C424   C     0.99703   0.57757   0.47905   0.00000  Uiso   1.00
C425   C     0.95821   0.55303   0.50111   0.00000  Uiso   1.00
C426   C     0.95247   0.54919   0.56890   0.00000  Uiso   1.00
C427   C     0.92738   0.53301   0.67392   0.00000  Uiso   1.00
C428   C     0.06884   0.62285   0.48828   0.00000  Uiso   1.00
C429   C     0.09136   0.58688   0.44278   0.00000  Uiso   1.00
C430   C     0.13814   0.57407   0.44297   0.00000  Uiso   1.00
C431   C     0.15187   0.54052   0.39744   0.00000  Uiso   1.00
C432   C     0.04592   0.65889   0.44328   0.00000  Uiso   1.00
C433   C     0.05450   0.70662   0.44389   0.00000  Uiso   1.00
C434   C     0.02998   0.73369   0.39880   0.00000  Uiso   1.00
C435   C     0.02896   0.59757   0.52315   0.00000  Uiso   1.00
C436   C     0.02327   0.59376   0.59092   0.00000  Uiso   1.00
C437   C     0.98446   0.56922   0.61307   0.00000  Uiso   1.00
H438   H     0.98519   0.57047   0.37277   0.00000  Uiso   1.00
H439   H     0.04837   0.51788   0.31903   0.00000  Uiso   1.00
H440   H     0.96474   0.65041   0.31997   0.00000  Uiso   1.00
H441   H     0.93351   0.53757   0.46697   0.00000  Uiso   1.00
H442   H     0.13250   0.46840   0.27889   0.00000  Uiso   1.00
H443   H     0.95615   0.74785   0.28087   0.00000  Uiso   1.00
H444   H     0.89030   0.50990   0.59085   0.00000  Uiso   1.00
H445   H     0.09370   0.63842   0.52261   0.00000  Uiso   1.00
H446   H     0.16284   0.58955   0.47709   0.00000  Uiso   1.00
H447   H     0.07921   0.72209   0.47802   0.00000  Uiso   1.00
H448   H     0.04798   0.60924   0.62503   0.00000  Uiso   1.00
H449   H     0.22541   0.52657   0.40717   0.00000  Uiso   1.00
H450   H     0.04906   0.80603   0.40915   0.00000  Uiso   1.00
H451   H     0.98321   0.56807   0.71914   0.00000  Uiso   1.00
O452   O     0.22248   0.46412   0.31037   0.00000  Uiso   1.00
O453   O     0.99111   0.83075   0.31298   0.00000  Uiso   1.00
O454   O     0.90472   0.51856   0.71967   0.00000  Uiso   1.00
N455   N     0.14488   0.48879   0.31533   0.00000  Uiso   1.00
N456   N     0.98001   0.75006   0.31718   0.00000  Uiso   1.00
N457   N     0.91843   0.52760   0.60699   0.00000  Uiso   1.00
N458   N     0.19487   0.52009   0.38436   0.00000  Uiso   1.00
N459   N     0.03000   0.78136   0.38621   0.00000  Uiso   1.00
N460   N     0.96843   0.55891   0.67602   0.00000  Uiso   1.00
C461   C     0.98995   0.41396   0.40710   0.00000  Uiso   1.00
C462   C     0.94058   0.43312   0.39869   0.00000  Uiso   1.00
C463   C     0.92691   0.46666   0.35315   0.00000  Uiso   1.00
C464   C     0.88012   0.47951   0.35327   0.00000  Uiso   1.00
C465   C     0.80831   0.51228   0.33347   0.00000  Uiso   1.00
C466   C     0.98601   0.36111   0.39919   0.00000  Uiso   1.00
C467   C     0.01055   0.33411   0.35408   0.00000  Uiso   1.00
C468   C     0.00201   0.28634   0.35463   0.00000  Uiso   1.00
C469   C     0.00076   0.20731   0.33564   0.00000  Uiso   1.00
C470   C     0.00297   0.42243   0.47905   0.00000  Uiso   1.00
C471   C     0.04179   0.44697   0.50111   0.00000  Uiso   1.00
C472   C     0.04753   0.45081   0.56890   0.00000  Uiso   1.00
C473   C     0.07262   0.46699   0.67392   0.00000  Uiso   1.00
C474   C     0.93116   0.37715   0.48828   0.00000  Uiso   1.00
C475   C     0.90864   0.41312   0.44278   0.00000  Uiso   1.00
C476   C     0.86186   0.42593   0.44297   0.00000  Uiso   1.00
C477   C     0.84813   0.45948   0.39744   0.00000  Uiso   1.00
C478   C     0.95408   0.34111   0.44328   0.00000  Uiso   1.00
C479   C     0.94550   0.29338   0.44389   0.00000  Uiso   1.00
C480   C     0.97002   0.26631   0.39880   0.00000  Uiso   1.00
C481   C     0.97104   0.40243   0.52315   0.00000  Uiso   1.00
C482   C     0.97673   0.40624   0.59092   0.00000  Uiso   1.00
C483   C     0.01554   0.43078   0.61307   0.00000  Uiso   1.00
H484   H     0.01481   0.42953   0.37277   0.00000  Uiso   1.00
H485   H     0.95163   0.48212   0.31903   0.00000  Uiso   1.00
H486   H     0.03526   0.34959   0.31997   0.00000  Uiso   1.00
H487   H     0.06649   0.46243   0.46697   0.00000  Uiso   1.00
H488   H     0.86750   0.53160   0.27889   0.00000  Uiso   1.00
H489   H     0.04385   0.25215   0.28087   0.00000  Uiso   1.00
H490   H     0.10970   0.49010   0.59085   0.00000  Uiso   1.00
H491   H     0.90630   0.36158   0.52261   0.00000  Uiso   1.00
H492   H     0.83716   0.41045   0.47709   0.00000  Uiso   1.00
H493   H     0.92079   0.27791   0.47802   0.00000  Uiso   1.00
H494   H     0.95202   0.39076   0.62503   0.00000  Uiso   1.00
H495   H     0.77459   0.47343   0.40717   0.00000  Uiso   1.00
H496   H     0.95094   0.19397   0.40915   0.00000  Uiso   1.00
H497   H     0.01679   0.43193   0.71914   0.00000  Uiso   1.00
O498   O     0.77752   0.53588   0.31037   0.00000  Uiso   1.00
O499   O     0.00889   0.16925   0.31298   0.00000  Uiso   1.00
O500   O     0.09528   0.48144   0.71967   0.00000  Uiso   1.00
N501   N     0.85512   0.51121   0.31533   0.00000  Uiso   1.00
N502   N     0.01999   0.24994   0.31718   0.00000  Uiso   1.00
N503   N     0.08157   0.47240   0.60699   0.00000  Uiso   1.00
N504   N     0.80513   0.47991   0.38436   0.00000  Uiso   1.00
N505   N     0.97000   0.21864   0.38621   0.00000  Uiso   1.00
N506   N     0.03157   0.44109   0.67602   0.00000  Uiso   1.00
C507   C     0.48995   0.91396   0.90710   0.00000  Uiso   1.00
C508   C     0.44058   0.93312   0.89869   0.00000  Uiso   1.00
C509   C     0.42691   0.96666   0.85315   0.00000  Uiso   1.00
C510   C     0.38012   0.97951   0.85327   0.00000  Uiso   1.00
C511   C     0.30831   0.01228   0.83347   0.00000  Uiso   1.00
C512   C     0.48601   0.86111   0.89919   0.00000  Uiso   1.00
C513   C     0.51055   0.83411   0.85408   0.00000  Uiso   1.00
C514   C     0.50201   0.78634   0.85463   0.00000  Uiso   1.00
C515   C     0.50076   0.70731   0.83564   0.00000  Uiso   1.00
C516   C     0.50297   0.92243   0.97905   0.00000  Uiso   1.00
C517   C     0.54179   0.94697   0.00111   0.00000  Uiso   1.00
C518   C     0.54753   0.95081   0.06890   0.00000  Uiso   1.00
C519   C     0.57262   0.96699   0.17392   0.00000  Uiso   1.00
C520   C     0.43116   0.87715   0.98828   0.00000  Uiso   1.00
C521   C     0.40864   0.91312   0.94278   0.00000  Uiso   1.00
C522   C     0.36186   0.92593   0.94297   0.00000  Uiso   1.00
C523   C     0.34813   0.95948   0.89744   0.00000  Uiso   1.00
C524   C     0.45408   0.84111   0.94328   0.00000  Uiso   1.00
C525   C     0.44550   0.79338   0.94389   0.00000  Uiso   1.00
C526   C     0.47002   0.76631   0.89880   0.00000  Uiso   1.00
C527   C     0.47104   0.90243   0.02315   0.00000  Uiso   1.00
C528   C     0.47673   0.90624   0.09092   0.00000  Uiso   1.00
C529   C     0.51554   0.93078   0.11307   0.00000  Uiso   1.00
H530   H     0.51481   0.92953   0.87277   0.00000  Uiso   1.00
H531   H     0.45163   0.98212   0.81903   0.00000  Uiso   1.00
H532   H     0.53526   0.84959   0.81997   0.00000  Uiso   1.00
H533   H     0.56649   0.96243   0.96697   0.00000  Uiso   1.00
H534   H     0.36750   0.03160   0.77889   0.00000  Uiso   1.00
H535   H     0.54385   0.75215   0.78087   0.00000  Uiso   1.00
H536   H     0.60970   0.99010   0.09085   0.00000  Uiso   1.00
H537   H     0.40630   0.86158   0.02261   0.00000  Uiso   1.00
H538   H     0.33716   0.91045   0.97709   0.00000  Uiso   1.00
H539   H     0.42079   0.77791   0.97802   0.00000  Uiso   1.00
H540   H     0.45202   0.89076   0.12503   0.00000  Uiso   1.00
H541   H     0.27459   0.97343   0.90717   0.00000  Uiso   1.00
H542   H     0.45094   0.69397   0.90915   0.00000  Uiso   1.00
H543   H     0.51679   0.93193   0.21914   0.00000  Uiso   1.00
O544   O     0.27752   0.03588   0.81037   0.00000  Uiso   1.00
O545   O     0.50889   0.66925   0.81298   0.00000  Uiso   1.00
O546   O     0.59528   0.98144   0.21967   0.00000  Uiso   1.00
N547   N     0.35512   0.01121   0.81533   0.00000  Uiso   1.00
N548   N     0.51999   0.74994   0.81718   0.00000  Uiso   1.00
N549   N     0.58157   0.97240   0.10699   0.00000  Uiso   1.00
N550   N     0.30513   0.97991   0.88436   0.00000  Uiso   1.00
N551   N     0.47000   0.71864   0.88621   0.00000  Uiso   1.00
N552   N     0.53157   0.94109   0.17602   0.00000  Uiso   1.00
C553   C     0.41396   0.51005   0.65710   0.00000  Uiso   1.00
C554   C     0.43312   0.55942   0.64869   0.00000  Uiso   1.00
C555   C     0.46666   0.57309   0.60315   0.00000  Uiso   1.00
C556   C     0.47951   0.61988   0.60327   0.00000  Uiso   1.00
C557   C     0.51228   0.69169   0.58347   0.00000  Uiso   1.00
C558   C     0.36111   0.51399   0.64919   0.00000  Uiso   1.00
C559   C     0.33411   0.48945   0.60408   0.00000  Uiso   1.00
C560   C     0.28634   0.49799   0.60463   0.00000  Uiso   1.00
C561   C     0.20731   0.49924   0.58564   0.00000  Uiso   1.00
C562   C     0.42243   0.49703   0.72905   0.00000  Uiso   1.00
C563   C     0.44697   0.45821   0.75111   0.00000  Uiso   1.00
C564   C     0.45081   0.45247   0.81890   0.00000  Uiso   1.00
C565   C     0.46699   0.42738   0.92392   0.00000  Uiso   1.00
C566   C     0.37715   0.56884   0.73828   0.00000  Uiso   1.00
C567   C     0.41312   0.59136   0.69278   0.00000  Uiso   1.00
C568   C     0.42593   0.63814   0.69297   0.00000  Uiso   1.00
C569   C     0.45948   0.65187   0.64744   0.00000  Uiso   1.00
C570   C     0.34111   0.54592   0.69328   0.00000  Uiso   1.00
C571   C     0.29338   0.55450   0.69389   0.00000  Uiso   1.00
C572   C     0.26631   0.52998   0.64880   0.00000  Uiso   1.00
C573   C     0.40243   0.52896   0.77315   0.00000  Uiso   1.00
C574   C     0.40624   0.52327   0.84092   0.00000  Uiso   1.00
C575   C     0.43078   0.48446   0.86307   0.00000  Uiso   1.00
H576   H     0.42953   0.48519   0.62277   0.00000  Uiso   1.00
H577   H     0.48212   0.54837   0.56903   0.00000  Uiso   1.00
H578   H     0.34959   0.46474   0.56997   0.00000  Uiso   1.00
H579   H     0.46243   0.43351   0.71697   0.00000  Uiso   1.00
H580   H     0.53160   0.63250   0.52889   0.00000  Uiso   1.00
H581   H     0.25215   0.45615   0.53087   0.00000  Uiso   1.00
H582   H     0.49010   0.39030   0.84085   0.00000  Uiso   1.00
H583   H     0.36158   0.59370   0.77261   0.00000  Uiso   1.00
H584   H     0.41045   0.66284   0.72709   0.00000  Uiso   1.00
H585   H     0.27791   0.57921   0.72802   0.00000  Uiso   1.00
H586   H     0.39076   0.54798   0.87503   0.00000  Uiso   1.00
H587   H     0.47343   0.72541   0.65717   0.00000  Uiso   1.00
H588   H     0.19397   0.54906   0.65915   0.00000  Uiso   1.00
H589   H     0.43193   0.48321   0.96914   0.00000  Uiso   1.00
O590   O     0.53588   0.72248   0.56037   0.00000  Uiso   1.00
O591   O     0.16925   0.49111   0.56298   0.00000  Uiso   1.00
O592   O     0.48144   0.40472   0.96967   0.00000  Uiso   1.00
N593   N     0.51121   0.64488   0.56533   0.00000  Uiso   1.00
N594   N     0.24994   0.48001   0.56718   0.00000  Uiso   1.00
N595   N     0.47240   0.41843   0.85699   0.00000  Uiso   1.00
N596   N     0.47991   0.69487   0.63436   0.00000  Uiso   1.00
N597   N     0.21864   0.53000   0.63621   0.00000  Uiso   1.00
N598   N     0.44109   0.46843   0.92602   0.00000  Uiso   1.00
C599   C     0.91396   0.01005   0.15710   0.00000  Uiso   1.00
C600   C     0.93312   0.05942   0.14869   0.00000  Uiso   1.00
C601   C     0.96666   0.07309   0.10315   0.00000  Uiso   1.00
C602   C     0.97951   0.11988   0.10327   0.00000  Uiso   1.00
C603   C     0.01228   0.19169   0.08347   0.00000  Uiso   1.00
C604   C     0.86111   0.01399   0.14919   0.00000  Uiso   1.00
C605   C     0.83411   0.98945   0.10408   0.00000  Uiso   1.00
C606   C     0.78634   0.99799   0.10463   0.00000  Uiso   1.00
C607   C     0.70731   0.99924   0.08564   0.00000  Uiso   1.00
C608   C     0.92243   0.99703   0.22905   0.00000  Uiso   1.00
C609   C     0.94697   0.95821   0.25111   0.00000  Uiso   1.00
C610   C     0.95081   0.95247   0.31890   0.00000  Uiso   1.00
C611   C     0.96699   0.92738   0.42392   0.00000  Uiso   1.00
C612   C     0.87715   0.06884   0.23828   0.00000  Uiso   1.00
C613   C     0.91312   0.09136   0.19278   0.00000  Uiso   1.00
C614   C     0.92593   0.13814   0.19297   0.00000  Uiso   1.00
C615   C     0.95948   0.15187   0.14744   0.00000  Uiso   1.00
C616   C     0.84111   0.04592   0.19328   0.00000  Uiso   1.00
C617   C     0.79338   0.05450   0.19389   0.00000  Uiso   1.00
C618   C     0.76631   0.02998   0.14880   0.00000  Uiso   1.00
C619   C     0.90243   0.02896   0.27315   0.00000  Uiso   1.00
C620   C     0.90624   0.02327   0.34092   0.00000  Uiso   1.00
C621   C     0.93078   0.98446   0.36307   0.00000  Uiso   1.00
H622   H     0.92953   0.98519   0.12277   0.00000  Uiso   1.00
H623   H     0.98212   0.04837   0.06903   0.00000  Uiso   1.00
H624   H     0.84959   0.96474   0.06997   0.00000  Uiso   1.00
H625   H     0.96243   0.93351   0.21697   0.00000  Uiso   1.00
H626   H     0.03160   0.13250   0.02889   0.00000  Uiso   1.00
H627   H     0.75215   0.95615   0.03087   0.00000  Uiso   1.00
H628   H     0.99010   0.89030   0.34085   0.00000  Uiso   1.00
H629   H     0.86158   0.09370   0.27261   0.00000  Uiso   1.00
H630   H     0.91045   0.16284   0.22709   0.00000  Uiso   1.00
H631   H     0.77791   0.07921   0.22802   0.00000  Uiso   1.00
H632   H     0.89076   0.04798   0.37503   0.00000  Uiso   1.00
H633   H     0.97343   0.22541   0.15717   0.00000  Uiso   1.00
H634   H     0.69397   0.04906   0.15915   0.00000  Uiso   1.00
H635   H     0.93193   0.98321   0.46914   0.00000  Uiso   1.00
O636   O     0.03588   0.22248   0.06037   0.00000  Uiso   1.00
O637   O     0.66925   0.99111   0.06298   0.00000  Uiso   1.00
O638   O     0.98144   0.90472   0.46967   0.00000  Uiso   1.00
N639   N     0.01121   0.14488   0.06533   0.00000  Uiso   1.00
N640   N     0.74994   0.98001   0.06718   0.00000  Uiso   1.00
N641   N     0.97240   0.91843   0.35699   0.00000  Uiso   1.00
N642   N     0.97991   0.19487   0.13436   0.00000  Uiso   1.00
N643   N     0.71864   0.03000   0.13621   0.00000  Uiso   1.00
N644   N     0.94109   0.96843   0.42602   0.00000  Uiso   1.00
C645   C     0.08604   0.98995   0.15710   0.00000  Uiso   1.00
C646   C     0.06688   0.94058   0.14869   0.00000  Uiso   1.00
C647   C     0.03334   0.92691   0.10315   0.00000  Uiso   1.00
C648   C     0.02049   0.88012   0.10327   0.00000  Uiso   1.00
C649   C     0.98772   0.80831   0.08347   0.00000  Uiso   1.00
C650   C     0.13889   0.98601   0.14919   0.00000  Uiso   1.00
C651   C     0.16589   0.01055   0.10408   0.00000  Uiso   1.00
C652   C     0.21366   0.00201   0.10463   0.00000  Uiso   1.00
C653   C     0.29269   0.00076   0.08564   0.00000  Uiso   1.00
C654   C     0.07757   0.00297   0.22905   0.00000  Uiso   1.00
C655   C     0.05303   0.04179   0.25111   0.00000  Uiso   1.00
C656   C     0.04919   0.04753   0.31890   0.00000  Uiso   1.00
C657   C     0.03301   0.07262   0.42392   0.00000  Uiso   1.00
C658   C     0.12285   0.93116   0.23828   0.00000  Uiso   1.00
C659   C     0.08688   0.90864   0.19278   0.00000  Uiso   1.00
C660   C     0.07407   0.86186   0.19297   0.00000  Uiso   1.00
C661   C     0.04052   0.84813   0.14744   0.00000  Uiso   1.00
C662   C     0.15889   0.95408   0.19328   0.00000  Uiso   1.00
C663   C     0.20662   0.94550   0.19389   0.00000  Uiso   1.00
C664   C     0.23369   0.97002   0.14880   0.00000  Uiso   1.00
C665   C     0.09757   0.97104   0.27315   0.00000  Uiso   1.00
C666   C     0.09376   0.97673   0.34092   0.00000  Uiso   1.00
C667   C     0.06922   0.01554   0.36307   0.00000  Uiso   1.00
H668   H     0.07047   0.01481   0.12277   0.00000  Uiso   1.00
H669   H     0.01788   0.95163   0.06903   0.00000  Uiso   1.00
H670   H     0.15041   0.03526   0.06997   0.00000  Uiso   1.00
H671   H     0.03757   0.06649   0.21697   0.00000  Uiso   1.00
H672   H     0.96840   0.86750   0.02889   0.00000  Uiso   1.00
H673   H     0.24785   0.04385   0.03087   0.00000  Uiso   1.00
H674   H     0.00990   0.10970   0.34085   0.00000  Uiso   1.00
H675   H     0.13842   0.90630   0.27261   0.00000  Uiso   1.00
H676   H     0.08955   0.83716   0.22709   0.00000  Uiso   1.00
H677   H     0.22209   0.92079   0.22802   0.00000  Uiso   1.00
H678   H     0.10924   0.95202   0.37503   0.00000  Uiso   1.00
H679   H     0.02657   0.77459   0.15717   0.00000  Uiso   1.00
H680   H     0.30603   0.95094   0.15915   0.00000  Uiso   1.00
H681   H     0.06807   0.01679   0.46914   0.00000  Uiso   1.00
O682   O     0.96412   0.77752   0.06037   0.00000  Uiso   1.00
O683   O     0.33075   0.00889   0.06298   0.00000  Uiso   1.00
O684   O     0.01856   0.09528   0.46967   0.00000  Uiso   1.00
N685   N     0.98879   0.85512   0.06533   0.00000  Uiso   1.00
N686   N     0.25006   0.01999   0.06718   0.00000  Uiso   1.00
N687   N     0.02760   0.08157   0.35699   0.00000  Uiso   1.00
N688   N     0.02009   0.80513   0.13436   0.00000  Uiso   1.00
N689   N     0.28136   0.97000   0.13621   0.00000  Uiso   1.00
N690   N     0.05891   0.03157   0.42602   0.00000  Uiso   1.00
C691   C     0.58604   0.48995   0.65710   0.00000  Uiso   1.00
C692   C     0.56688   0.44058   0.64869   0.00000  Uiso   1.00
C693   C     0.53334   0.42691   0.60315   0.00000  Uiso   1.00
C694   C     0.52049   0.38012   0.60327   0.00000  Uiso   1.00
C695   C     0.48772   0.30831   0.58347   0.00000  Uiso   1.00
C696   C     0.63889   0.48601   0.64919   0.00000  Uiso   1.00
C697   C     0.66589   0.51055   0.60408   0.00000  Uiso   1.00
C698   C     0.71366   0.50201   0.60463   0.00000  Uiso   1.00
C699   C     0.79269   0.50076   0.58564   0.00000  Uiso   1.00
C700   C     0.57757   0.50297   0.72905   0.00000  Uiso   1.00
C701   C     0.55303   0.54179   0.75111   0.00000  Uiso   1.00
C702   C     0.54919   0.54753   0.81890   0.00000  Uiso   1.00
C703   C     0.53301   0.57262   0.92392   0.00000  Uiso   1.00
C704   C     0.62285   0.43116   0.73828   0.00000  Uiso   1.00
C705   C     0.58688   0.40864   0.69278   0.00000  Uiso   1.00
C706   C     0.57407   0.36186   0.69297   0.00000  Uiso   1.00
C707   C     0.54052   0.34813   0.64744   0.00000  Uiso   1.00
C708   C     0.65889   0.45408   0.69328   0.00000  Uiso   1.00
C709   C     0.70662   0.44550   0.69389   0.00000  Uiso   1.00
C710   C     0.73369   0.47002   0.64880   0.00000  Uiso   1.00
C711   C     0.59757   0.47104   0.77315   0.00000  Uiso   1.00
C712   C     0.59376   0.47673   0.84092   0.00000  Uiso   1.00
C713   C     0.56922   0.51554   0.86307   0.00000  Uiso   1.00
H714   H     0.57047   0.51481   0.62277   0.00000  Uiso   1.00
H715   H     0.51788   0.45163   0.56903   0.00000  Uiso   1.00
H716   H     0.65041   0.53526   0.56997   0.00000  Uiso   1.00
H717   H     0.53757   0.56649   0.71697   0.00000  Uiso   1.00
H718   H     0.46840   0.36750   0.52889   0.00000  Uiso   1.00
H719   H     0.74785   0.54385   0.53087   0.00000  Uiso   1.00
H720   H     0.50990   0.60970   0.84085   0.00000  Uiso   1.00
H721   H     0.63842   0.40630   0.77261   0.00000  Uiso   1.00
H722   H     0.58955   0.33716   0.72709   0.00000  Uiso   1.00
H723   H     0.72209   0.42079   0.72802   0.00000  Uiso   1.00
H724   H     0.60924   0.45202   0.87503   0.00000  Uiso   1.00
H725   H     0.52657   0.27459   0.65717   0.00000  Uiso   1.00
H726   H     0.80603   0.45094   0.65915   0.00000  Uiso   1.00
H727   H     0.56807   0.51679   0.96914   0.00000  Uiso   1.00
O728   O     0.46412   0.27752   0.56037   0.00000  Uiso   1.00
O729   O     0.83075   0.50889   0.56298   0.00000  Uiso   1.00
O730   O     0.51856   0.59528   0.96967   0.00000  Uiso   1.00
N731   N     0.48879   0.35512   0.56533   0.00000  Uiso   1.00
N732   N     0.75006   0.51999   0.56718   0.00000  Uiso   1.00
N733   N     0.52760   0.58157   0.85699   0.00000  Uiso   1.00
N734   N     0.52009   0.30513   0.63436   0.00000  Uiso   1.00
N735   N     0.78136   0.47000   0.63621   0.00000  Uiso   1.00
N736   N     0.55891   0.53157   0.92602   0.00000  Uiso   1.00
