data_job_02802
_audit_creation_date              2018-12-19
_audit_creation_method            'Materials Studio'
_symmetry_space_group_name_H-M    'P1'
_symmetry_Int_Tables_number       1
_symmetry_cell_setting            triclinic
loop_
_symmetry_equiv_pos_as_xyz
  x,y,z
_cell_length_a                    31.5607
_cell_length_b                    31.5607
_cell_length_c                    12.4787
_cell_angle_alpha                 90.0000
_cell_angle_beta                  90.0000
_cell_angle_gamma                 90.0000
loop_
_atom_site_label
_atom_site_type_symbol
_atom_site_fract_x
_atom_site_fract_y
_atom_site_fract_z
_atom_site_U_iso_or_equiv
_atom_site_adp_type
_atom_site_occupancy
C1     C     0.06035   0.22621   0.15040   0.00000  Uiso   1.00
C2     C     0.04660   0.17995   0.15656   0.00000  Uiso   1.00
C3     C     0.00624   0.16468   0.13522   0.00000  Uiso   1.00
C4     C     0.00006   0.12131   0.14540   0.00000  Uiso   1.00
C5     C     0.97368   0.05361   0.15039   0.00000  Uiso   1.00
C6     C     0.07848   0.23705   0.26030   0.00000  Uiso   1.00
C7     C     0.06493   0.26978   0.32618   0.00000  Uiso   1.00
C8     C     0.08559   0.27448   0.42368   0.00000  Uiso   1.00
C9     C     0.10874   0.29544   0.58970   0.00000  Uiso   1.00
C10    C     0.09763   0.22746   0.07273   0.00000  Uiso   1.00
C11    C     0.10018   0.25214   0.98091   0.00000  Uiso   1.00
C12    C     0.13697   0.24877   0.92051   0.00000  Uiso   1.00
C13    C     0.18984   0.25484   0.79530   0.00000  Uiso   1.00
C14    C     0.12115   0.17635   0.20641   0.00000  Uiso   1.00
C15    C     0.07962   0.15287   0.18699   0.00000  Uiso   1.00
C16    C     0.07351   0.10951   0.19719   0.00000  Uiso   1.00
C17    C     0.03314   0.09418   0.17587   0.00000  Uiso   1.00
C18    C     0.11150   0.20997   0.29073   0.00000  Uiso   1.00
C19    C     0.13220   0.21462   0.38815   0.00000  Uiso   1.00
C20    C     0.11868   0.24735   0.45416   0.00000  Uiso   1.00
C21    C     0.13065   0.20037   0.10315   0.00000  Uiso   1.00
C22    C     0.16745   0.19697   0.04289   0.00000  Uiso   1.00
C23    C     0.17006   0.22164   0.95099   0.00000  Uiso   1.00
H24    H     0.03463   0.24730   0.12672   0.00000  Uiso   1.00
H25    H     0.98068   0.18565   0.11169   0.00000  Uiso   1.00
H26    H     0.03937   0.29074   0.30261   0.00000  Uiso   1.00
H27    H     0.07462   0.27309   0.95740   0.00000  Uiso   1.00
H28    H     0.93543   0.10536   0.10848   0.00000  Uiso   1.00
H29    H     0.05918   0.32696   0.51103   0.00000  Uiso   1.00
H30    H     0.13351   0.28975   0.78309   0.00000  Uiso   1.00
H31    H     0.14686   0.15526   0.23010   0.00000  Uiso   1.00
H32    H     0.09907   0.08856   0.22074   0.00000  Uiso   1.00
H33    H     0.15776   0.19365   0.41167   0.00000  Uiso   1.00
H34    H     0.19300   0.17601   0.06645   0.00000  Uiso   1.00
H35    H     0.03152   0.02656   0.19699   0.00000  Uiso   1.00
H36    H     0.15527   0.24816   0.59955   0.00000  Uiso   1.00
H37    H     0.22959   0.21095   0.87160   0.00000  Uiso   1.00
O38    O     0.95001   0.02375   0.14475   0.00000  Uiso   1.00
O39    O     0.11237   0.31448   0.67287   0.00000  Uiso   1.00
O40    O     0.20988   0.26566   0.71782   0.00000  Uiso   1.00
N41    N     0.96461   0.09597   0.13057   0.00000  Uiso   1.00
N42    N     0.08030   0.30314   0.50694   0.00000  Uiso   1.00
N43    N     0.14979   0.26837   0.82639   0.00000  Uiso   1.00
N44    N     0.01631   0.05357   0.17820   0.00000  Uiso   1.00
N45    N     0.13201   0.26074   0.55457   0.00000  Uiso   1.00
N46    N     0.20150   0.22597   0.87402   0.00000  Uiso   1.00
C47    C     0.56035   0.72621   0.65040   0.00000  Uiso   1.00
C48    C     0.54660   0.67995   0.65656   0.00000  Uiso   1.00
C49    C     0.50624   0.66468   0.63522   0.00000  Uiso   1.00
C50    C     0.50006   0.62131   0.64540   0.00000  Uiso   1.00
C51    C     0.47368   0.55361   0.65039   0.00000  Uiso   1.00
C52    C     0.57848   0.73705   0.76030   0.00000  Uiso   1.00
C53    C     0.56493   0.76978   0.82618   0.00000  Uiso   1.00
C54    C     0.58559   0.77448   0.92368   0.00000  Uiso   1.00
C55    C     0.60874   0.79544   0.08970   0.00000  Uiso   1.00
C56    C     0.59763   0.72746   0.57273   0.00000  Uiso   1.00
C57    C     0.60018   0.75214   0.48091   0.00000  Uiso   1.00
C58    C     0.63697   0.74877   0.42051   0.00000  Uiso   1.00
C59    C     0.68984   0.75484   0.29530   0.00000  Uiso   1.00
C60    C     0.62115   0.67635   0.70641   0.00000  Uiso   1.00
C61    C     0.57962   0.65287   0.68699   0.00000  Uiso   1.00
C62    C     0.57351   0.60951   0.69719   0.00000  Uiso   1.00
C63    C     0.53314   0.59418   0.67587   0.00000  Uiso   1.00
C64    C     0.61150   0.70997   0.79073   0.00000  Uiso   1.00
C65    C     0.63220   0.71462   0.88815   0.00000  Uiso   1.00
C66    C     0.61868   0.74735   0.95416   0.00000  Uiso   1.00
C67    C     0.63065   0.70037   0.60315   0.00000  Uiso   1.00
C68    C     0.66745   0.69697   0.54289   0.00000  Uiso   1.00
C69    C     0.67006   0.72164   0.45099   0.00000  Uiso   1.00
H70    H     0.53463   0.74730   0.62672   0.00000  Uiso   1.00
H71    H     0.48068   0.68565   0.61169   0.00000  Uiso   1.00
H72    H     0.53937   0.79074   0.80261   0.00000  Uiso   1.00
H73    H     0.57462   0.77309   0.45740   0.00000  Uiso   1.00
H74    H     0.43543   0.60536   0.60848   0.00000  Uiso   1.00
H75    H     0.55918   0.82696   0.01103   0.00000  Uiso   1.00
H76    H     0.63351   0.78975   0.28309   0.00000  Uiso   1.00
H77    H     0.64686   0.65526   0.73010   0.00000  Uiso   1.00
H78    H     0.59907   0.58856   0.72074   0.00000  Uiso   1.00
H79    H     0.65776   0.69365   0.91167   0.00000  Uiso   1.00
H80    H     0.69300   0.67601   0.56645   0.00000  Uiso   1.00
H81    H     0.53152   0.52656   0.69699   0.00000  Uiso   1.00
H82    H     0.65527   0.74816   0.09955   0.00000  Uiso   1.00
H83    H     0.72959   0.71095   0.37160   0.00000  Uiso   1.00
O84    O     0.45001   0.52375   0.64475   0.00000  Uiso   1.00
O85    O     0.61237   0.81448   0.17287   0.00000  Uiso   1.00
O86    O     0.70988   0.76566   0.21782   0.00000  Uiso   1.00
N87    N     0.46461   0.59597   0.63057   0.00000  Uiso   1.00
N88    N     0.58030   0.80314   0.00694   0.00000  Uiso   1.00
N89    N     0.64979   0.76837   0.32639   0.00000  Uiso   1.00
N90    N     0.51631   0.55357   0.67820   0.00000  Uiso   1.00
N91    N     0.63201   0.76074   0.05457   0.00000  Uiso   1.00
N92    N     0.70150   0.72597   0.37402   0.00000  Uiso   1.00
C93    C     0.43965   0.27379   0.65040   0.00000  Uiso   1.00
C94    C     0.45340   0.32005   0.65656   0.00000  Uiso   1.00
C95    C     0.49376   0.33532   0.63522   0.00000  Uiso   1.00
C96    C     0.49994   0.37869   0.64540   0.00000  Uiso   1.00
C97    C     0.52632   0.44639   0.65039   0.00000  Uiso   1.00
C98    C     0.42152   0.26295   0.76030   0.00000  Uiso   1.00
C99    C     0.43507   0.23022   0.82618   0.00000  Uiso   1.00
C100   C     0.41441   0.22552   0.92368   0.00000  Uiso   1.00
C101   C     0.39126   0.20456   0.08970   0.00000  Uiso   1.00
C102   C     0.40237   0.27254   0.57273   0.00000  Uiso   1.00
C103   C     0.39982   0.24786   0.48091   0.00000  Uiso   1.00
C104   C     0.36303   0.25123   0.42051   0.00000  Uiso   1.00
C105   C     0.31016   0.24516   0.29530   0.00000  Uiso   1.00
C106   C     0.37885   0.32365   0.70641   0.00000  Uiso   1.00
C107   C     0.42038   0.34713   0.68699   0.00000  Uiso   1.00
C108   C     0.42649   0.39049   0.69719   0.00000  Uiso   1.00
C109   C     0.46686   0.40582   0.67587   0.00000  Uiso   1.00
C110   C     0.38850   0.29003   0.79073   0.00000  Uiso   1.00
C111   C     0.36780   0.28538   0.88815   0.00000  Uiso   1.00
C112   C     0.38132   0.25265   0.95416   0.00000  Uiso   1.00
C113   C     0.36935   0.29963   0.60315   0.00000  Uiso   1.00
C114   C     0.33255   0.30303   0.54289   0.00000  Uiso   1.00
C115   C     0.32994   0.27836   0.45099   0.00000  Uiso   1.00
H116   H     0.46537   0.25270   0.62672   0.00000  Uiso   1.00
H117   H     0.51932   0.31435   0.61169   0.00000  Uiso   1.00
H118   H     0.46063   0.20926   0.80261   0.00000  Uiso   1.00
H119   H     0.42538   0.22691   0.45740   0.00000  Uiso   1.00
H120   H     0.56457   0.39464   0.60848   0.00000  Uiso   1.00
H121   H     0.44082   0.17304   0.01103   0.00000  Uiso   1.00
H122   H     0.36649   0.21025   0.28309   0.00000  Uiso   1.00
H123   H     0.35314   0.34474   0.73010   0.00000  Uiso   1.00
H124   H     0.40093   0.41144   0.72074   0.00000  Uiso   1.00
H125   H     0.34224   0.30635   0.91167   0.00000  Uiso   1.00
H126   H     0.30700   0.32399   0.56645   0.00000  Uiso   1.00
H127   H     0.46848   0.47344   0.69699   0.00000  Uiso   1.00
H128   H     0.34473   0.25184   0.09955   0.00000  Uiso   1.00
H129   H     0.27041   0.28905   0.37160   0.00000  Uiso   1.00
O130   O     0.54999   0.47625   0.64475   0.00000  Uiso   1.00
O131   O     0.38763   0.18552   0.17287   0.00000  Uiso   1.00
O132   O     0.29012   0.23434   0.21782   0.00000  Uiso   1.00
N133   N     0.53539   0.40403   0.63057   0.00000  Uiso   1.00
N134   N     0.41970   0.19686   0.00694   0.00000  Uiso   1.00
N135   N     0.35021   0.23163   0.32639   0.00000  Uiso   1.00
N136   N     0.48369   0.44643   0.67820   0.00000  Uiso   1.00
N137   N     0.36799   0.23926   0.05457   0.00000  Uiso   1.00
N138   N     0.29850   0.27403   0.37402   0.00000  Uiso   1.00
C139   C     0.93965   0.77379   0.15040   0.00000  Uiso   1.00
C140   C     0.95340   0.82005   0.15656   0.00000  Uiso   1.00
C141   C     0.99376   0.83532   0.13522   0.00000  Uiso   1.00
C142   C     0.99994   0.87869   0.14540   0.00000  Uiso   1.00
C143   C     0.02632   0.94639   0.15039   0.00000  Uiso   1.00
C144   C     0.92152   0.76295   0.26030   0.00000  Uiso   1.00
C145   C     0.93507   0.73022   0.32618   0.00000  Uiso   1.00
C146   C     0.91441   0.72552   0.42368   0.00000  Uiso   1.00
C147   C     0.89126   0.70456   0.58970   0.00000  Uiso   1.00
C148   C     0.90237   0.77254   0.07273   0.00000  Uiso   1.00
C149   C     0.89982   0.74786   0.98091   0.00000  Uiso   1.00
C150   C     0.86303   0.75123   0.92051   0.00000  Uiso   1.00
C151   C     0.81016   0.74516   0.79530   0.00000  Uiso   1.00
C152   C     0.87885   0.82365   0.20641   0.00000  Uiso   1.00
C153   C     0.92038   0.84713   0.18699   0.00000  Uiso   1.00
C154   C     0.92649   0.89049   0.19719   0.00000  Uiso   1.00
C155   C     0.96686   0.90582   0.17587   0.00000  Uiso   1.00
C156   C     0.88850   0.79003   0.29073   0.00000  Uiso   1.00
C157   C     0.86780   0.78538   0.38815   0.00000  Uiso   1.00
C158   C     0.88132   0.75265   0.45416   0.00000  Uiso   1.00
C159   C     0.86935   0.79963   0.10315   0.00000  Uiso   1.00
C160   C     0.83255   0.80303   0.04289   0.00000  Uiso   1.00
C161   C     0.82994   0.77836   0.95099   0.00000  Uiso   1.00
H162   H     0.96537   0.75270   0.12672   0.00000  Uiso   1.00
H163   H     0.01932   0.81435   0.11169   0.00000  Uiso   1.00
H164   H     0.96063   0.70926   0.30261   0.00000  Uiso   1.00
H165   H     0.92538   0.72691   0.95740   0.00000  Uiso   1.00
H166   H     0.06457   0.89464   0.10848   0.00000  Uiso   1.00
H167   H     0.94082   0.67304   0.51103   0.00000  Uiso   1.00
H168   H     0.86649   0.71025   0.78309   0.00000  Uiso   1.00
H169   H     0.85314   0.84474   0.23010   0.00000  Uiso   1.00
H170   H     0.90093   0.91144   0.22074   0.00000  Uiso   1.00
H171   H     0.84224   0.80635   0.41167   0.00000  Uiso   1.00
H172   H     0.80700   0.82399   0.06645   0.00000  Uiso   1.00
H173   H     0.96848   0.97344   0.19699   0.00000  Uiso   1.00
H174   H     0.84473   0.75184   0.59955   0.00000  Uiso   1.00
H175   H     0.77041   0.78905   0.87160   0.00000  Uiso   1.00
O176   O     0.04999   0.97625   0.14475   0.00000  Uiso   1.00
O177   O     0.88763   0.68552   0.67287   0.00000  Uiso   1.00
O178   O     0.79012   0.73434   0.71782   0.00000  Uiso   1.00
N179   N     0.03539   0.90403   0.13057   0.00000  Uiso   1.00
N180   N     0.91970   0.69686   0.50694   0.00000  Uiso   1.00
N181   N     0.85021   0.73163   0.82639   0.00000  Uiso   1.00
N182   N     0.98369   0.94643   0.17820   0.00000  Uiso   1.00
N183   N     0.86799   0.73926   0.55457   0.00000  Uiso   1.00
N184   N     0.79850   0.77403   0.87402   0.00000  Uiso   1.00
C185   C     0.77379   0.56035   0.40040   0.00000  Uiso   1.00
C186   C     0.82005   0.54660   0.40656   0.00000  Uiso   1.00
C187   C     0.83532   0.50624   0.38522   0.00000  Uiso   1.00
C188   C     0.87869   0.50006   0.39540   0.00000  Uiso   1.00
C189   C     0.94639   0.47368   0.40039   0.00000  Uiso   1.00
C190   C     0.76295   0.57848   0.51030   0.00000  Uiso   1.00
C191   C     0.73022   0.56493   0.57618   0.00000  Uiso   1.00
C192   C     0.72552   0.58559   0.67368   0.00000  Uiso   1.00
C193   C     0.70456   0.60874   0.83970   0.00000  Uiso   1.00
C194   C     0.77254   0.59763   0.32273   0.00000  Uiso   1.00
C195   C     0.74786   0.60018   0.23091   0.00000  Uiso   1.00
C196   C     0.75123   0.63697   0.17051   0.00000  Uiso   1.00
C197   C     0.74516   0.68984   0.04530   0.00000  Uiso   1.00
C198   C     0.82365   0.62115   0.45641   0.00000  Uiso   1.00
C199   C     0.84713   0.57962   0.43699   0.00000  Uiso   1.00
C200   C     0.89049   0.57351   0.44719   0.00000  Uiso   1.00
C201   C     0.90582   0.53314   0.42587   0.00000  Uiso   1.00
C202   C     0.79003   0.61150   0.54073   0.00000  Uiso   1.00
C203   C     0.78538   0.63220   0.63815   0.00000  Uiso   1.00
C204   C     0.75265   0.61868   0.70416   0.00000  Uiso   1.00
C205   C     0.79963   0.63065   0.35315   0.00000  Uiso   1.00
C206   C     0.80303   0.66745   0.29289   0.00000  Uiso   1.00
C207   C     0.77836   0.67006   0.20099   0.00000  Uiso   1.00
H208   H     0.75270   0.53463   0.37672   0.00000  Uiso   1.00
H209   H     0.81435   0.48068   0.36169   0.00000  Uiso   1.00
H210   H     0.70926   0.53937   0.55261   0.00000  Uiso   1.00
H211   H     0.72691   0.57462   0.20740   0.00000  Uiso   1.00
H212   H     0.89464   0.43543   0.35848   0.00000  Uiso   1.00
H213   H     0.67304   0.55918   0.76103   0.00000  Uiso   1.00
H214   H     0.71025   0.63351   0.03309   0.00000  Uiso   1.00
H215   H     0.84474   0.64686   0.48010   0.00000  Uiso   1.00
H216   H     0.91144   0.59907   0.47074   0.00000  Uiso   1.00
H217   H     0.80635   0.65776   0.66167   0.00000  Uiso   1.00
H218   H     0.82399   0.69300   0.31645   0.00000  Uiso   1.00
H219   H     0.97344   0.53152   0.44699   0.00000  Uiso   1.00
H220   H     0.75184   0.65527   0.84955   0.00000  Uiso   1.00
H221   H     0.78905   0.72959   0.12160   0.00000  Uiso   1.00
O222   O     0.97625   0.45001   0.39475   0.00000  Uiso   1.00
O223   O     0.68552   0.61237   0.92287   0.00000  Uiso   1.00
O224   O     0.73434   0.70988   0.96782   0.00000  Uiso   1.00
N225   N     0.90403   0.46461   0.38057   0.00000  Uiso   1.00
N226   N     0.69686   0.58030   0.75694   0.00000  Uiso   1.00
N227   N     0.73163   0.64979   0.07639   0.00000  Uiso   1.00
N228   N     0.94643   0.51631   0.42820   0.00000  Uiso   1.00
N229   N     0.73926   0.63201   0.80457   0.00000  Uiso   1.00
N230   N     0.77403   0.70150   0.12402   0.00000  Uiso   1.00
C231   C     0.27379   0.06035   0.90040   0.00000  Uiso   1.00
C232   C     0.32005   0.04660   0.90656   0.00000  Uiso   1.00
C233   C     0.33532   0.00624   0.88522   0.00000  Uiso   1.00
C234   C     0.37869   0.00006   0.89540   0.00000  Uiso   1.00
C235   C     0.44639   0.97368   0.90039   0.00000  Uiso   1.00
C236   C     0.26295   0.07848   0.01030   0.00000  Uiso   1.00
C237   C     0.23022   0.06493   0.07618   0.00000  Uiso   1.00
C238   C     0.22552   0.08559   0.17368   0.00000  Uiso   1.00
C239   C     0.20456   0.10874   0.33970   0.00000  Uiso   1.00
C240   C     0.27254   0.09763   0.82273   0.00000  Uiso   1.00
C241   C     0.24786   0.10018   0.73091   0.00000  Uiso   1.00
C242   C     0.25123   0.13697   0.67051   0.00000  Uiso   1.00
C243   C     0.24516   0.18984   0.54530   0.00000  Uiso   1.00
C244   C     0.32365   0.12115   0.95641   0.00000  Uiso   1.00
C245   C     0.34713   0.07962   0.93699   0.00000  Uiso   1.00
C246   C     0.39049   0.07351   0.94719   0.00000  Uiso   1.00
C247   C     0.40582   0.03314   0.92587   0.00000  Uiso   1.00
C248   C     0.29003   0.11150   0.04073   0.00000  Uiso   1.00
C249   C     0.28538   0.13220   0.13815   0.00000  Uiso   1.00
C250   C     0.25265   0.11868   0.20416   0.00000  Uiso   1.00
C251   C     0.29963   0.13065   0.85315   0.00000  Uiso   1.00
C252   C     0.30303   0.16745   0.79289   0.00000  Uiso   1.00
C253   C     0.27836   0.17006   0.70099   0.00000  Uiso   1.00
H254   H     0.25270   0.03463   0.87672   0.00000  Uiso   1.00
H255   H     0.31435   0.98068   0.86169   0.00000  Uiso   1.00
H256   H     0.20926   0.03937   0.05261   0.00000  Uiso   1.00
H257   H     0.22691   0.07462   0.70740   0.00000  Uiso   1.00
H258   H     0.39464   0.93543   0.85848   0.00000  Uiso   1.00
H259   H     0.17304   0.05918   0.26103   0.00000  Uiso   1.00
H260   H     0.21025   0.13351   0.53309   0.00000  Uiso   1.00
H261   H     0.34474   0.14686   0.98010   0.00000  Uiso   1.00
H262   H     0.41144   0.09907   0.97074   0.00000  Uiso   1.00
H263   H     0.30635   0.15776   0.16167   0.00000  Uiso   1.00
H264   H     0.32399   0.19300   0.81645   0.00000  Uiso   1.00
H265   H     0.47344   0.03152   0.94699   0.00000  Uiso   1.00
H266   H     0.25184   0.15527   0.34955   0.00000  Uiso   1.00
H267   H     0.28905   0.22959   0.62160   0.00000  Uiso   1.00
O268   O     0.47625   0.95001   0.89475   0.00000  Uiso   1.00
O269   O     0.18552   0.11237   0.42287   0.00000  Uiso   1.00
O270   O     0.23434   0.20988   0.46782   0.00000  Uiso   1.00
N271   N     0.40403   0.96461   0.88057   0.00000  Uiso   1.00
N272   N     0.19686   0.08030   0.25694   0.00000  Uiso   1.00
N273   N     0.23163   0.14979   0.57639   0.00000  Uiso   1.00
N274   N     0.44643   0.01631   0.92820   0.00000  Uiso   1.00
N275   N     0.23926   0.13201   0.30457   0.00000  Uiso   1.00
N276   N     0.27403   0.20150   0.62402   0.00000  Uiso   1.00
C277   C     0.72621   0.93965   0.90040   0.00000  Uiso   1.00
C278   C     0.67995   0.95340   0.90656   0.00000  Uiso   1.00
C279   C     0.66468   0.99376   0.88522   0.00000  Uiso   1.00
C280   C     0.62131   0.99994   0.89540   0.00000  Uiso   1.00
C281   C     0.55361   0.02632   0.90039   0.00000  Uiso   1.00
C282   C     0.73705   0.92152   0.01030   0.00000  Uiso   1.00
C283   C     0.76978   0.93507   0.07618   0.00000  Uiso   1.00
C284   C     0.77448   0.91441   0.17368   0.00000  Uiso   1.00
C285   C     0.79544   0.89126   0.33970   0.00000  Uiso   1.00
C286   C     0.72746   0.90237   0.82273   0.00000  Uiso   1.00
C287   C     0.75214   0.89982   0.73091   0.00000  Uiso   1.00
C288   C     0.74877   0.86303   0.67051   0.00000  Uiso   1.00
C289   C     0.75484   0.81016   0.54530   0.00000  Uiso   1.00
C290   C     0.67635   0.87885   0.95641   0.00000  Uiso   1.00
C291   C     0.65287   0.92038   0.93699   0.00000  Uiso   1.00
C292   C     0.60951   0.92649   0.94719   0.00000  Uiso   1.00
C293   C     0.59418   0.96686   0.92587   0.00000  Uiso   1.00
C294   C     0.70997   0.88850   0.04073   0.00000  Uiso   1.00
C295   C     0.71462   0.86780   0.13815   0.00000  Uiso   1.00
C296   C     0.74735   0.88132   0.20416   0.00000  Uiso   1.00
C297   C     0.70037   0.86935   0.85315   0.00000  Uiso   1.00
C298   C     0.69697   0.83255   0.79289   0.00000  Uiso   1.00
C299   C     0.72164   0.82994   0.70099   0.00000  Uiso   1.00
H300   H     0.74730   0.96537   0.87672   0.00000  Uiso   1.00
H301   H     0.68565   0.01932   0.86169   0.00000  Uiso   1.00
H302   H     0.79074   0.96063   0.05261   0.00000  Uiso   1.00
H303   H     0.77309   0.92538   0.70740   0.00000  Uiso   1.00
H304   H     0.60536   0.06457   0.85848   0.00000  Uiso   1.00
H305   H     0.82696   0.94082   0.26103   0.00000  Uiso   1.00
H306   H     0.78975   0.86649   0.53309   0.00000  Uiso   1.00
H307   H     0.65526   0.85314   0.98010   0.00000  Uiso   1.00
H308   H     0.58856   0.90093   0.97074   0.00000  Uiso   1.00
H309   H     0.69365   0.84224   0.16167   0.00000  Uiso   1.00
H310   H     0.67601   0.80700   0.81645   0.00000  Uiso   1.00
H311   H     0.52656   0.96848   0.94699   0.00000  Uiso   1.00
H312   H     0.74816   0.84473   0.34955   0.00000  Uiso   1.00
H313   H     0.71095   0.77041   0.62160   0.00000  Uiso   1.00
O314   O     0.52375   0.04999   0.89475   0.00000  Uiso   1.00
O315   O     0.81448   0.88763   0.42287   0.00000  Uiso   1.00
O316   O     0.76566   0.79012   0.46782   0.00000  Uiso   1.00
N317   N     0.59597   0.03539   0.88057   0.00000  Uiso   1.00
N318   N     0.80314   0.91970   0.25694   0.00000  Uiso   1.00
N319   N     0.76837   0.85021   0.57639   0.00000  Uiso   1.00
N320   N     0.55357   0.98369   0.92820   0.00000  Uiso   1.00
N321   N     0.76074   0.86799   0.30457   0.00000  Uiso   1.00
N322   N     0.72597   0.79850   0.62402   0.00000  Uiso   1.00
C323   C     0.22621   0.43965   0.40040   0.00000  Uiso   1.00
C324   C     0.17995   0.45340   0.40656   0.00000  Uiso   1.00
C325   C     0.16468   0.49376   0.38522   0.00000  Uiso   1.00
C326   C     0.12131   0.49994   0.39540   0.00000  Uiso   1.00
C327   C     0.05361   0.52632   0.40039   0.00000  Uiso   1.00
C328   C     0.23705   0.42152   0.51030   0.00000  Uiso   1.00
C329   C     0.26978   0.43507   0.57618   0.00000  Uiso   1.00
C330   C     0.27448   0.41441   0.67368   0.00000  Uiso   1.00
C331   C     0.29544   0.39126   0.83970   0.00000  Uiso   1.00
C332   C     0.22746   0.40237   0.32273   0.00000  Uiso   1.00
C333   C     0.25214   0.39982   0.23091   0.00000  Uiso   1.00
C334   C     0.24877   0.36303   0.17051   0.00000  Uiso   1.00
C335   C     0.25484   0.31016   0.04530   0.00000  Uiso   1.00
C336   C     0.17635   0.37885   0.45641   0.00000  Uiso   1.00
C337   C     0.15287   0.42038   0.43699   0.00000  Uiso   1.00
C338   C     0.10951   0.42649   0.44719   0.00000  Uiso   1.00
C339   C     0.09418   0.46686   0.42587   0.00000  Uiso   1.00
C340   C     0.20997   0.38850   0.54073   0.00000  Uiso   1.00
C341   C     0.21462   0.36780   0.63815   0.00000  Uiso   1.00
C342   C     0.24735   0.38132   0.70416   0.00000  Uiso   1.00
C343   C     0.20037   0.36935   0.35315   0.00000  Uiso   1.00
C344   C     0.19697   0.33255   0.29289   0.00000  Uiso   1.00
C345   C     0.22164   0.32994   0.20099   0.00000  Uiso   1.00
H346   H     0.24730   0.46537   0.37672   0.00000  Uiso   1.00
H347   H     0.18565   0.51932   0.36169   0.00000  Uiso   1.00
H348   H     0.29074   0.46063   0.55261   0.00000  Uiso   1.00
H349   H     0.27309   0.42538   0.20740   0.00000  Uiso   1.00
H350   H     0.10536   0.56457   0.35848   0.00000  Uiso   1.00
H351   H     0.32696   0.44082   0.76103   0.00000  Uiso   1.00
H352   H     0.28975   0.36649   0.03309   0.00000  Uiso   1.00
H353   H     0.15526   0.35314   0.48010   0.00000  Uiso   1.00
H354   H     0.08856   0.40093   0.47074   0.00000  Uiso   1.00
H355   H     0.19365   0.34224   0.66167   0.00000  Uiso   1.00
H356   H     0.17601   0.30700   0.31645   0.00000  Uiso   1.00
H357   H     0.02656   0.46848   0.44699   0.00000  Uiso   1.00
H358   H     0.24816   0.34473   0.84955   0.00000  Uiso   1.00
H359   H     0.21095   0.27041   0.12160   0.00000  Uiso   1.00
O360   O     0.02375   0.54999   0.39475   0.00000  Uiso   1.00
O361   O     0.31448   0.38763   0.92287   0.00000  Uiso   1.00
O362   O     0.26566   0.29012   0.96782   0.00000  Uiso   1.00
N363   N     0.09597   0.53539   0.38057   0.00000  Uiso   1.00
N364   N     0.30314   0.41970   0.75694   0.00000  Uiso   1.00
N365   N     0.26837   0.35021   0.07639   0.00000  Uiso   1.00
N366   N     0.05357   0.48369   0.42820   0.00000  Uiso   1.00
N367   N     0.26074   0.36799   0.80457   0.00000  Uiso   1.00
N368   N     0.22597   0.29850   0.12402   0.00000  Uiso   1.00
C369   C     0.93965   0.27379   0.09960   0.00000  Uiso   1.00
C370   C     0.95340   0.32005   0.09344   0.00000  Uiso   1.00
C371   C     0.99376   0.33532   0.11478   0.00000  Uiso   1.00
C372   C     0.99994   0.37869   0.10460   0.00000  Uiso   1.00
C373   C     0.02632   0.44639   0.09961   0.00000  Uiso   1.00
C374   C     0.92152   0.26295   0.98970   0.00000  Uiso   1.00
C375   C     0.93507   0.23022   0.92382   0.00000  Uiso   1.00
C376   C     0.91441   0.22552   0.82632   0.00000  Uiso   1.00
C377   C     0.89126   0.20456   0.66030   0.00000  Uiso   1.00
C378   C     0.90237   0.27254   0.17727   0.00000  Uiso   1.00
C379   C     0.89982   0.24786   0.26909   0.00000  Uiso   1.00
C380   C     0.86303   0.25123   0.32949   0.00000  Uiso   1.00
C381   C     0.81016   0.24516   0.45470   0.00000  Uiso   1.00
C382   C     0.87885   0.32365   0.04359   0.00000  Uiso   1.00
C383   C     0.92038   0.34713   0.06301   0.00000  Uiso   1.00
C384   C     0.92649   0.39049   0.05281   0.00000  Uiso   1.00
C385   C     0.96686   0.40582   0.07413   0.00000  Uiso   1.00
C386   C     0.88850   0.29003   0.95927   0.00000  Uiso   1.00
C387   C     0.86780   0.28538   0.86185   0.00000  Uiso   1.00
C388   C     0.88132   0.25265   0.79584   0.00000  Uiso   1.00
C389   C     0.86935   0.29963   0.14685   0.00000  Uiso   1.00
C390   C     0.83255   0.30303   0.20711   0.00000  Uiso   1.00
C391   C     0.82994   0.27836   0.29901   0.00000  Uiso   1.00
H392   H     0.96537   0.25270   0.12328   0.00000  Uiso   1.00
H393   H     0.01932   0.31435   0.13831   0.00000  Uiso   1.00
H394   H     0.96063   0.20926   0.94739   0.00000  Uiso   1.00
H395   H     0.92538   0.22691   0.29260   0.00000  Uiso   1.00
H396   H     0.06457   0.39464   0.14152   0.00000  Uiso   1.00
H397   H     0.94082   0.17304   0.73897   0.00000  Uiso   1.00
H398   H     0.86649   0.21025   0.46691   0.00000  Uiso   1.00
H399   H     0.85314   0.34474   0.01990   0.00000  Uiso   1.00
H400   H     0.90093   0.41144   0.02926   0.00000  Uiso   1.00
H401   H     0.84224   0.30635   0.83833   0.00000  Uiso   1.00
H402   H     0.80700   0.32399   0.18355   0.00000  Uiso   1.00
H403   H     0.96848   0.47344   0.05301   0.00000  Uiso   1.00
H404   H     0.84473   0.25184   0.65045   0.00000  Uiso   1.00
H405   H     0.77041   0.28905   0.37840   0.00000  Uiso   1.00
O406   O     0.04999   0.47625   0.10525   0.00000  Uiso   1.00
O407   O     0.88763   0.18552   0.57713   0.00000  Uiso   1.00
O408   O     0.79012   0.23434   0.53218   0.00000  Uiso   1.00
N409   N     0.03539   0.40403   0.11943   0.00000  Uiso   1.00
N410   N     0.91970   0.19686   0.74306   0.00000  Uiso   1.00
N411   N     0.85021   0.23163   0.42361   0.00000  Uiso   1.00
N412   N     0.98369   0.44643   0.07180   0.00000  Uiso   1.00
N413   N     0.86799   0.23926   0.69543   0.00000  Uiso   1.00
N414   N     0.79850   0.27403   0.37598   0.00000  Uiso   1.00
C415   C     0.43965   0.77379   0.59960   0.00000  Uiso   1.00
C416   C     0.45340   0.82005   0.59344   0.00000  Uiso   1.00
C417   C     0.49376   0.83532   0.61478   0.00000  Uiso   1.00
C418   C     0.49994   0.87869   0.60460   0.00000  Uiso   1.00
C419   C     0.52632   0.94639   0.59961   0.00000  Uiso   1.00
C420   C     0.42152   0.76295   0.48970   0.00000  Uiso   1.00
C421   C     0.43507   0.73022   0.42382   0.00000  Uiso   1.00
C422   C     0.41441   0.72552   0.32632   0.00000  Uiso   1.00
C423   C     0.39126   0.70456   0.16030   0.00000  Uiso   1.00
C424   C     0.40237   0.77254   0.67727   0.00000  Uiso   1.00
C425   C     0.39982   0.74786   0.76909   0.00000  Uiso   1.00
C426   C     0.36303   0.75123   0.82949   0.00000  Uiso   1.00
C427   C     0.31016   0.74516   0.95470   0.00000  Uiso   1.00
C428   C     0.37885   0.82365   0.54359   0.00000  Uiso   1.00
C429   C     0.42038   0.84713   0.56301   0.00000  Uiso   1.00
C430   C     0.42649   0.89049   0.55281   0.00000  Uiso   1.00
C431   C     0.46686   0.90582   0.57413   0.00000  Uiso   1.00
C432   C     0.38850   0.79003   0.45927   0.00000  Uiso   1.00
C433   C     0.36780   0.78538   0.36185   0.00000  Uiso   1.00
C434   C     0.38132   0.75265   0.29584   0.00000  Uiso   1.00
C435   C     0.36935   0.79963   0.64685   0.00000  Uiso   1.00
C436   C     0.33255   0.80303   0.70711   0.00000  Uiso   1.00
C437   C     0.32994   0.77836   0.79901   0.00000  Uiso   1.00
H438   H     0.46537   0.75270   0.62328   0.00000  Uiso   1.00
H439   H     0.51932   0.81435   0.63831   0.00000  Uiso   1.00
H440   H     0.46063   0.70926   0.44739   0.00000  Uiso   1.00
H441   H     0.42538   0.72691   0.79260   0.00000  Uiso   1.00
H442   H     0.56457   0.89464   0.64152   0.00000  Uiso   1.00
H443   H     0.44082   0.67304   0.23897   0.00000  Uiso   1.00
H444   H     0.36649   0.71025   0.96691   0.00000  Uiso   1.00
H445   H     0.35314   0.84474   0.51990   0.00000  Uiso   1.00
H446   H     0.40093   0.91144   0.52926   0.00000  Uiso   1.00
H447   H     0.34224   0.80635   0.33833   0.00000  Uiso   1.00
H448   H     0.30700   0.82399   0.68355   0.00000  Uiso   1.00
H449   H     0.46848   0.97344   0.55301   0.00000  Uiso   1.00
H450   H     0.34473   0.75184   0.15045   0.00000  Uiso   1.00
H451   H     0.27041   0.78905   0.87840   0.00000  Uiso   1.00
O452   O     0.54999   0.97625   0.60525   0.00000  Uiso   1.00
O453   O     0.38763   0.68552   0.07713   0.00000  Uiso   1.00
O454   O     0.29012   0.73434   0.03218   0.00000  Uiso   1.00
N455   N     0.53539   0.90403   0.61943   0.00000  Uiso   1.00
N456   N     0.41970   0.69686   0.24306   0.00000  Uiso   1.00
N457   N     0.35021   0.73163   0.92361   0.00000  Uiso   1.00
N458   N     0.48369   0.94643   0.57180   0.00000  Uiso   1.00
N459   N     0.36799   0.73926   0.19543   0.00000  Uiso   1.00
N460   N     0.29850   0.77403   0.87598   0.00000  Uiso   1.00
C461   C     0.56035   0.22621   0.59960   0.00000  Uiso   1.00
C462   C     0.54660   0.17995   0.59344   0.00000  Uiso   1.00
C463   C     0.50624   0.16468   0.61478   0.00000  Uiso   1.00
C464   C     0.50006   0.12131   0.60460   0.00000  Uiso   1.00
C465   C     0.47368   0.05361   0.59961   0.00000  Uiso   1.00
C466   C     0.57848   0.23705   0.48970   0.00000  Uiso   1.00
C467   C     0.56493   0.26978   0.42382   0.00000  Uiso   1.00
C468   C     0.58559   0.27448   0.32632   0.00000  Uiso   1.00
C469   C     0.60874   0.29544   0.16030   0.00000  Uiso   1.00
C470   C     0.59763   0.22746   0.67727   0.00000  Uiso   1.00
C471   C     0.60018   0.25214   0.76909   0.00000  Uiso   1.00
C472   C     0.63697   0.24877   0.82949   0.00000  Uiso   1.00
C473   C     0.68984   0.25484   0.95470   0.00000  Uiso   1.00
C474   C     0.62115   0.17635   0.54359   0.00000  Uiso   1.00
C475   C     0.57962   0.15287   0.56301   0.00000  Uiso   1.00
C476   C     0.57351   0.10951   0.55281   0.00000  Uiso   1.00
C477   C     0.53314   0.09418   0.57413   0.00000  Uiso   1.00
C478   C     0.61150   0.20997   0.45927   0.00000  Uiso   1.00
C479   C     0.63220   0.21462   0.36185   0.00000  Uiso   1.00
C480   C     0.61868   0.24735   0.29584   0.00000  Uiso   1.00
C481   C     0.63065   0.20037   0.64685   0.00000  Uiso   1.00
C482   C     0.66745   0.19697   0.70711   0.00000  Uiso   1.00
C483   C     0.67006   0.22164   0.79901   0.00000  Uiso   1.00
H484   H     0.53463   0.24730   0.62328   0.00000  Uiso   1.00
H485   H     0.48068   0.18565   0.63831   0.00000  Uiso   1.00
H486   H     0.53937   0.29074   0.44739   0.00000  Uiso   1.00
H487   H     0.57462   0.27309   0.79260   0.00000  Uiso   1.00
H488   H     0.43543   0.10536   0.64152   0.00000  Uiso   1.00
H489   H     0.55918   0.32696   0.23897   0.00000  Uiso   1.00
H490   H     0.63351   0.28975   0.96691   0.00000  Uiso   1.00
H491   H     0.64686   0.15526   0.51990   0.00000  Uiso   1.00
H492   H     0.59907   0.08856   0.52926   0.00000  Uiso   1.00
H493   H     0.65776   0.19365   0.33833   0.00000  Uiso   1.00
H494   H     0.69300   0.17601   0.68355   0.00000  Uiso   1.00
H495   H     0.53152   0.02656   0.55301   0.00000  Uiso   1.00
H496   H     0.65527   0.24816   0.15045   0.00000  Uiso   1.00
H497   H     0.72959   0.21095   0.87840   0.00000  Uiso   1.00
O498   O     0.45001   0.02375   0.60525   0.00000  Uiso   1.00
O499   O     0.61237   0.31448   0.07713   0.00000  Uiso   1.00
O500   O     0.70988   0.26566   0.03218   0.00000  Uiso   1.00
N501   N     0.46461   0.09597   0.61943   0.00000  Uiso   1.00
N502   N     0.58030   0.30314   0.24306   0.00000  Uiso   1.00
N503   N     0.64979   0.26837   0.92361   0.00000  Uiso   1.00
N504   N     0.51631   0.05357   0.57180   0.00000  Uiso   1.00
N505   N     0.63201   0.26074   0.19543   0.00000  Uiso   1.00
N506   N     0.70150   0.22597   0.87598   0.00000  Uiso   1.00
C507   C     0.06035   0.72621   0.09960   0.00000  Uiso   1.00
C508   C     0.04660   0.67995   0.09344   0.00000  Uiso   1.00
C509   C     0.00624   0.66468   0.11478   0.00000  Uiso   1.00
C510   C     0.00006   0.62131   0.10460   0.00000  Uiso   1.00
C511   C     0.97368   0.55361   0.09961   0.00000  Uiso   1.00
C512   C     0.07848   0.73705   0.98970   0.00000  Uiso   1.00
C513   C     0.06493   0.76978   0.92382   0.00000  Uiso   1.00
C514   C     0.08559   0.77448   0.82632   0.00000  Uiso   1.00
C515   C     0.10874   0.79544   0.66030   0.00000  Uiso   1.00
C516   C     0.09763   0.72746   0.17727   0.00000  Uiso   1.00
C517   C     0.10018   0.75214   0.26909   0.00000  Uiso   1.00
C518   C     0.13697   0.74877   0.32949   0.00000  Uiso   1.00
C519   C     0.18984   0.75484   0.45470   0.00000  Uiso   1.00
C520   C     0.12115   0.67635   0.04359   0.00000  Uiso   1.00
C521   C     0.07962   0.65287   0.06301   0.00000  Uiso   1.00
C522   C     0.07351   0.60951   0.05281   0.00000  Uiso   1.00
C523   C     0.03314   0.59418   0.07413   0.00000  Uiso   1.00
C524   C     0.11150   0.70997   0.95927   0.00000  Uiso   1.00
C525   C     0.13220   0.71462   0.86185   0.00000  Uiso   1.00
C526   C     0.11868   0.74735   0.79584   0.00000  Uiso   1.00
C527   C     0.13065   0.70037   0.14685   0.00000  Uiso   1.00
C528   C     0.16745   0.69697   0.20711   0.00000  Uiso   1.00
C529   C     0.17006   0.72164   0.29901   0.00000  Uiso   1.00
H530   H     0.03463   0.74730   0.12328   0.00000  Uiso   1.00
H531   H     0.98068   0.68565   0.13831   0.00000  Uiso   1.00
H532   H     0.03937   0.79074   0.94739   0.00000  Uiso   1.00
H533   H     0.07462   0.77309   0.29260   0.00000  Uiso   1.00
H534   H     0.93543   0.60536   0.14152   0.00000  Uiso   1.00
H535   H     0.05918   0.82696   0.73897   0.00000  Uiso   1.00
H536   H     0.13351   0.78975   0.46691   0.00000  Uiso   1.00
H537   H     0.14686   0.65526   0.01990   0.00000  Uiso   1.00
H538   H     0.09907   0.58856   0.02926   0.00000  Uiso   1.00
H539   H     0.15776   0.69365   0.83833   0.00000  Uiso   1.00
H540   H     0.19300   0.67601   0.18355   0.00000  Uiso   1.00
H541   H     0.03152   0.52656   0.05301   0.00000  Uiso   1.00
H542   H     0.15527   0.74816   0.65045   0.00000  Uiso   1.00
H543   H     0.22959   0.71095   0.37840   0.00000  Uiso   1.00
O544   O     0.95001   0.52375   0.10525   0.00000  Uiso   1.00
O545   O     0.11237   0.81448   0.57713   0.00000  Uiso   1.00
O546   O     0.20988   0.76566   0.53218   0.00000  Uiso   1.00
N547   N     0.96461   0.59597   0.11943   0.00000  Uiso   1.00
N548   N     0.08030   0.80314   0.74306   0.00000  Uiso   1.00
N549   N     0.14979   0.76837   0.42361   0.00000  Uiso   1.00
N550   N     0.01631   0.55357   0.07180   0.00000  Uiso   1.00
N551   N     0.13201   0.76074   0.69543   0.00000  Uiso   1.00
N552   N     0.20150   0.72597   0.37598   0.00000  Uiso   1.00
C553   C     0.22621   0.93965   0.84960   0.00000  Uiso   1.00
C554   C     0.17995   0.95340   0.84344   0.00000  Uiso   1.00
C555   C     0.16468   0.99376   0.86478   0.00000  Uiso   1.00
C556   C     0.12131   0.99994   0.85460   0.00000  Uiso   1.00
C557   C     0.05361   0.02632   0.84961   0.00000  Uiso   1.00
C558   C     0.23705   0.92152   0.73970   0.00000  Uiso   1.00
C559   C     0.26978   0.93507   0.67382   0.00000  Uiso   1.00
C560   C     0.27448   0.91441   0.57632   0.00000  Uiso   1.00
C561   C     0.29544   0.89126   0.41030   0.00000  Uiso   1.00
C562   C     0.22746   0.90237   0.92727   0.00000  Uiso   1.00
C563   C     0.25214   0.89982   0.01909   0.00000  Uiso   1.00
C564   C     0.24877   0.86303   0.07949   0.00000  Uiso   1.00
C565   C     0.25484   0.81016   0.20470   0.00000  Uiso   1.00
C566   C     0.17635   0.87885   0.79359   0.00000  Uiso   1.00
C567   C     0.15287   0.92038   0.81301   0.00000  Uiso   1.00
C568   C     0.10951   0.92649   0.80281   0.00000  Uiso   1.00
C569   C     0.09418   0.96686   0.82413   0.00000  Uiso   1.00
C570   C     0.20997   0.88850   0.70927   0.00000  Uiso   1.00
C571   C     0.21462   0.86780   0.61185   0.00000  Uiso   1.00
C572   C     0.24735   0.88132   0.54584   0.00000  Uiso   1.00
C573   C     0.20037   0.86935   0.89685   0.00000  Uiso   1.00
C574   C     0.19697   0.83255   0.95711   0.00000  Uiso   1.00
C575   C     0.22164   0.82994   0.04901   0.00000  Uiso   1.00
H576   H     0.24730   0.96537   0.87328   0.00000  Uiso   1.00
H577   H     0.18565   0.01932   0.88831   0.00000  Uiso   1.00
H578   H     0.29074   0.96063   0.69739   0.00000  Uiso   1.00
H579   H     0.27309   0.92538   0.04260   0.00000  Uiso   1.00
H580   H     0.10536   0.06457   0.89152   0.00000  Uiso   1.00
H581   H     0.32696   0.94082   0.48897   0.00000  Uiso   1.00
H582   H     0.28975   0.86649   0.21691   0.00000  Uiso   1.00
H583   H     0.15526   0.85314   0.76990   0.00000  Uiso   1.00
H584   H     0.08856   0.90093   0.77926   0.00000  Uiso   1.00
H585   H     0.19365   0.84224   0.58833   0.00000  Uiso   1.00
H586   H     0.17601   0.80700   0.93355   0.00000  Uiso   1.00
H587   H     0.02656   0.96848   0.80301   0.00000  Uiso   1.00
H588   H     0.24816   0.84473   0.40045   0.00000  Uiso   1.00
H589   H     0.21095   0.77041   0.12840   0.00000  Uiso   1.00
O590   O     0.02375   0.04999   0.85525   0.00000  Uiso   1.00
O591   O     0.31448   0.88763   0.32713   0.00000  Uiso   1.00
O592   O     0.26566   0.79012   0.28218   0.00000  Uiso   1.00
N593   N     0.09597   0.03539   0.86943   0.00000  Uiso   1.00
N594   N     0.30314   0.91970   0.49306   0.00000  Uiso   1.00
N595   N     0.26837   0.85021   0.17361   0.00000  Uiso   1.00
N596   N     0.05357   0.98369   0.82180   0.00000  Uiso   1.00
N597   N     0.26074   0.86799   0.44543   0.00000  Uiso   1.00
N598   N     0.22597   0.79850   0.12598   0.00000  Uiso   1.00
C599   C     0.72621   0.43965   0.34960   0.00000  Uiso   1.00
C600   C     0.67995   0.45340   0.34344   0.00000  Uiso   1.00
C601   C     0.66468   0.49376   0.36478   0.00000  Uiso   1.00
C602   C     0.62131   0.49994   0.35460   0.00000  Uiso   1.00
C603   C     0.55361   0.52632   0.34961   0.00000  Uiso   1.00
C604   C     0.73705   0.42152   0.23970   0.00000  Uiso   1.00
C605   C     0.76978   0.43507   0.17382   0.00000  Uiso   1.00
C606   C     0.77448   0.41441   0.07632   0.00000  Uiso   1.00
C607   C     0.79544   0.39126   0.91030   0.00000  Uiso   1.00
C608   C     0.72746   0.40237   0.42727   0.00000  Uiso   1.00
C609   C     0.75214   0.39982   0.51909   0.00000  Uiso   1.00
C610   C     0.74877   0.36303   0.57949   0.00000  Uiso   1.00
C611   C     0.75484   0.31016   0.70470   0.00000  Uiso   1.00
C612   C     0.67635   0.37885   0.29359   0.00000  Uiso   1.00
C613   C     0.65287   0.42038   0.31301   0.00000  Uiso   1.00
C614   C     0.60951   0.42649   0.30281   0.00000  Uiso   1.00
C615   C     0.59418   0.46686   0.32413   0.00000  Uiso   1.00
C616   C     0.70997   0.38850   0.20927   0.00000  Uiso   1.00
C617   C     0.71462   0.36780   0.11185   0.00000  Uiso   1.00
C618   C     0.74735   0.38132   0.04584   0.00000  Uiso   1.00
C619   C     0.70037   0.36935   0.39685   0.00000  Uiso   1.00
C620   C     0.69697   0.33255   0.45711   0.00000  Uiso   1.00
C621   C     0.72164   0.32994   0.54901   0.00000  Uiso   1.00
H622   H     0.74730   0.46537   0.37328   0.00000  Uiso   1.00
H623   H     0.68565   0.51932   0.38831   0.00000  Uiso   1.00
H624   H     0.79074   0.46063   0.19739   0.00000  Uiso   1.00
H625   H     0.77309   0.42538   0.54260   0.00000  Uiso   1.00
H626   H     0.60536   0.56457   0.39152   0.00000  Uiso   1.00
H627   H     0.82696   0.44082   0.98897   0.00000  Uiso   1.00
H628   H     0.78975   0.36649   0.71691   0.00000  Uiso   1.00
H629   H     0.65526   0.35314   0.26990   0.00000  Uiso   1.00
H630   H     0.58856   0.40093   0.27926   0.00000  Uiso   1.00
H631   H     0.69365   0.34224   0.08833   0.00000  Uiso   1.00
H632   H     0.67601   0.30700   0.43355   0.00000  Uiso   1.00
H633   H     0.52656   0.46848   0.30301   0.00000  Uiso   1.00
H634   H     0.74816   0.34473   0.90045   0.00000  Uiso   1.00
H635   H     0.71095   0.27041   0.62840   0.00000  Uiso   1.00
O636   O     0.52375   0.54999   0.35525   0.00000  Uiso   1.00
O637   O     0.81448   0.38763   0.82713   0.00000  Uiso   1.00
O638   O     0.76566   0.29012   0.78218   0.00000  Uiso   1.00
N639   N     0.59597   0.53539   0.36943   0.00000  Uiso   1.00
N640   N     0.80314   0.41970   0.99306   0.00000  Uiso   1.00
N641   N     0.76837   0.35021   0.67361   0.00000  Uiso   1.00
N642   N     0.55357   0.48369   0.32180   0.00000  Uiso   1.00
N643   N     0.76074   0.36799   0.94543   0.00000  Uiso   1.00
N644   N     0.72597   0.29850   0.62598   0.00000  Uiso   1.00
C645   C     0.27379   0.56035   0.34960   0.00000  Uiso   1.00
C646   C     0.32005   0.54660   0.34344   0.00000  Uiso   1.00
C647   C     0.33532   0.50624   0.36478   0.00000  Uiso   1.00
C648   C     0.37869   0.50006   0.35460   0.00000  Uiso   1.00
C649   C     0.44639   0.47368   0.34961   0.00000  Uiso   1.00
C650   C     0.26295   0.57848   0.23970   0.00000  Uiso   1.00
C651   C     0.23022   0.56493   0.17382   0.00000  Uiso   1.00
C652   C     0.22552   0.58559   0.07632   0.00000  Uiso   1.00
C653   C     0.20456   0.60874   0.91030   0.00000  Uiso   1.00
C654   C     0.27254   0.59763   0.42727   0.00000  Uiso   1.00
C655   C     0.24786   0.60018   0.51909   0.00000  Uiso   1.00
C656   C     0.25123   0.63697   0.57949   0.00000  Uiso   1.00
C657   C     0.24516   0.68984   0.70470   0.00000  Uiso   1.00
C658   C     0.32365   0.62115   0.29359   0.00000  Uiso   1.00
C659   C     0.34713   0.57962   0.31301   0.00000  Uiso   1.00
C660   C     0.39049   0.57351   0.30281   0.00000  Uiso   1.00
C661   C     0.40582   0.53314   0.32413   0.00000  Uiso   1.00
C662   C     0.29003   0.61150   0.20927   0.00000  Uiso   1.00
C663   C     0.28538   0.63220   0.11185   0.00000  Uiso   1.00
C664   C     0.25265   0.61868   0.04584   0.00000  Uiso   1.00
C665   C     0.29963   0.63065   0.39685   0.00000  Uiso   1.00
C666   C     0.30303   0.66745   0.45711   0.00000  Uiso   1.00
C667   C     0.27836   0.67006   0.54901   0.00000  Uiso   1.00
H668   H     0.25270   0.53463   0.37328   0.00000  Uiso   1.00
H669   H     0.31435   0.48068   0.38831   0.00000  Uiso   1.00
H670   H     0.20926   0.53937   0.19739   0.00000  Uiso   1.00
H671   H     0.22691   0.57462   0.54260   0.00000  Uiso   1.00
H672   H     0.39464   0.43543   0.39152   0.00000  Uiso   1.00
H673   H     0.17304   0.55918   0.98897   0.00000  Uiso   1.00
H674   H     0.21025   0.63351   0.71691   0.00000  Uiso   1.00
H675   H     0.34474   0.64686   0.26990   0.00000  Uiso   1.00
H676   H     0.41144   0.59907   0.27926   0.00000  Uiso   1.00
H677   H     0.30635   0.65776   0.08833   0.00000  Uiso   1.00
H678   H     0.32399   0.69300   0.43355   0.00000  Uiso   1.00
H679   H     0.47344   0.53152   0.30301   0.00000  Uiso   1.00
H680   H     0.25184   0.65527   0.90045   0.00000  Uiso   1.00
H681   H     0.28905   0.72959   0.62840   0.00000  Uiso   1.00
O682   O     0.47625   0.45001   0.35525   0.00000  Uiso   1.00
O683   O     0.18552   0.61237   0.82713   0.00000  Uiso   1.00
O684   O     0.23434   0.70988   0.78218   0.00000  Uiso   1.00
N685   N     0.40403   0.46461   0.36943   0.00000  Uiso   1.00
N686   N     0.19686   0.58030   0.99306   0.00000  Uiso   1.00
N687   N     0.23163   0.64979   0.67361   0.00000  Uiso   1.00
N688   N     0.44643   0.51631   0.32180   0.00000  Uiso   1.00
N689   N     0.23926   0.63201   0.94543   0.00000  Uiso   1.00
N690   N     0.27403   0.70150   0.62598   0.00000  Uiso   1.00
C691   C     0.77379   0.06035   0.84960   0.00000  Uiso   1.00
C692   C     0.82005   0.04660   0.84344   0.00000  Uiso   1.00
C693   C     0.83532   0.00624   0.86478   0.00000  Uiso   1.00
C694   C     0.87869   0.00006   0.85460   0.00000  Uiso   1.00
C695   C     0.94639   0.97368   0.84961   0.00000  Uiso   1.00
C696   C     0.76295   0.07848   0.73970   0.00000  Uiso   1.00
C697   C     0.73022   0.06493   0.67382   0.00000  Uiso   1.00
C698   C     0.72552   0.08559   0.57632   0.00000  Uiso   1.00
C699   C     0.70456   0.10874   0.41030   0.00000  Uiso   1.00
C700   C     0.77254   0.09763   0.92727   0.00000  Uiso   1.00
C701   C     0.74786   0.10018   0.01909   0.00000  Uiso   1.00
C702   C     0.75123   0.13697   0.07949   0.00000  Uiso   1.00
C703   C     0.74516   0.18984   0.20470   0.00000  Uiso   1.00
C704   C     0.82365   0.12115   0.79359   0.00000  Uiso   1.00
C705   C     0.84713   0.07962   0.81301   0.00000  Uiso   1.00
C706   C     0.89049   0.07351   0.80281   0.00000  Uiso   1.00
C707   C     0.90582   0.03314   0.82413   0.00000  Uiso   1.00
C708   C     0.79003   0.11150   0.70927   0.00000  Uiso   1.00
C709   C     0.78538   0.13220   0.61185   0.00000  Uiso   1.00
C710   C     0.75265   0.11868   0.54584   0.00000  Uiso   1.00
C711   C     0.79963   0.13065   0.89685   0.00000  Uiso   1.00
C712   C     0.80303   0.16745   0.95711   0.00000  Uiso   1.00
C713   C     0.77836   0.17006   0.04901   0.00000  Uiso   1.00
H714   H     0.75270   0.03463   0.87328   0.00000  Uiso   1.00
H715   H     0.81435   0.98068   0.88831   0.00000  Uiso   1.00
H716   H     0.70926   0.03937   0.69739   0.00000  Uiso   1.00
H717   H     0.72691   0.07462   0.04260   0.00000  Uiso   1.00
H718   H     0.89464   0.93543   0.89152   0.00000  Uiso   1.00
H719   H     0.67304   0.05918   0.48897   0.00000  Uiso   1.00
H720   H     0.71025   0.13351   0.21691   0.00000  Uiso   1.00
H721   H     0.84474   0.14686   0.76990   0.00000  Uiso   1.00
H722   H     0.91144   0.09907   0.77926   0.00000  Uiso   1.00
H723   H     0.80635   0.15776   0.58833   0.00000  Uiso   1.00
H724   H     0.82399   0.19300   0.93355   0.00000  Uiso   1.00
H725   H     0.97344   0.03152   0.80301   0.00000  Uiso   1.00
H726   H     0.75184   0.15527   0.40045   0.00000  Uiso   1.00
H727   H     0.78905   0.22959   0.12840   0.00000  Uiso   1.00
O728   O     0.97625   0.95001   0.85525   0.00000  Uiso   1.00
O729   O     0.68552   0.11237   0.32713   0.00000  Uiso   1.00
O730   O     0.73434   0.20988   0.28218   0.00000  Uiso   1.00
N731   N     0.90403   0.96461   0.86943   0.00000  Uiso   1.00
N732   N     0.69686   0.08030   0.49306   0.00000  Uiso   1.00
N733   N     0.73163   0.14979   0.17361   0.00000  Uiso   1.00
N734   N     0.94643   0.01631   0.82180   0.00000  Uiso   1.00
N735   N     0.73926   0.13201   0.44543   0.00000  Uiso   1.00
N736   N     0.77403   0.20150   0.12598   0.00000  Uiso   1.00
