data_job_03475
_audit_creation_date              2018-12-19
_audit_creation_method            'Materials Studio'
_symmetry_space_group_name_H-M    'P1'
_symmetry_Int_Tables_number       1
_symmetry_cell_setting            triclinic
loop_
_symmetry_equiv_pos_as_xyz
  x,y,z
_cell_length_a                    40.3155
_cell_length_b                    20.8440
_cell_length_c                    14.0975
_cell_angle_alpha                 90.0000
_cell_angle_beta                  90.0000
_cell_angle_gamma                 90.0000
loop_
_atom_site_label
_atom_site_type_symbol
_atom_site_fract_x
_atom_site_fract_y
_atom_site_fract_z
_atom_site_U_iso_or_equiv
_atom_site_adp_type
_atom_site_occupancy
C1     C     0.30157   0.95051   0.63992   0.00000  Uiso   1.00
C2     C     0.31682   0.01286   0.67599   0.00000  Uiso   1.00
C3     C     0.30877   0.07408   0.64490   0.00000  Uiso   1.00
C4     C     0.32553   0.12491   0.68677   0.00000  Uiso   1.00
C5     C     0.34559   0.22325   0.73203   0.00000  Uiso   1.00
C6     C     0.33047   0.90942   0.60561   0.00000  Uiso   1.00
C7     C     0.33389   0.88368   0.51535   0.00000  Uiso   1.00
C8     C     0.36214   0.84744   0.49797   0.00000  Uiso   1.00
C9     C     0.40338   0.78515   0.43398   0.00000  Uiso   1.00
C10    C     0.28762   0.91651   0.72699   0.00000  Uiso   1.00
C11    C     0.25501   0.89671   0.73879   0.00000  Uiso   1.00
C12    C     0.24718   0.86642   0.82361   0.00000  Uiso   1.00
C13    C     0.22188   0.81515   0.94809   0.00000  Uiso   1.00
C14    C     0.34565   0.93192   0.76955   0.00000  Uiso   1.00
C15    C     0.34076   0.00275   0.74640   0.00000  Uiso   1.00
C16    C     0.35754   0.05351   0.78832   0.00000  Uiso   1.00
C17    C     0.34952   0.11480   0.75731   0.00000  Uiso   1.00
C18    C     0.35441   0.89933   0.67601   0.00000  Uiso   1.00
C19    C     0.38266   0.86311   0.65876   0.00000  Uiso   1.00
C20    C     0.38613   0.83732   0.56850   0.00000  Uiso   1.00
C21    C     0.31156   0.90642   0.79741   0.00000  Uiso   1.00
C22    C     0.30378   0.87615   0.88222   0.00000  Uiso   1.00
C23    C     0.27117   0.85631   0.89415   0.00000  Uiso   1.00
H24    H     0.28293   0.95837   0.58510   0.00000  Uiso   1.00
H25    H     0.29024   0.08187   0.59041   0.00000  Uiso   1.00
H26    H     0.31536   0.89150   0.46088   0.00000  Uiso   1.00
H27    H     0.23649   0.90453   0.68429   0.00000  Uiso   1.00
H28    H     0.30892   0.21434   0.62732   0.00000  Uiso   1.00
H29    H     0.36188   0.81290   0.35420   0.00000  Uiso   1.00
H30    H     0.19556   0.84040   0.82532   0.00000  Uiso   1.00
H31    H     0.36429   0.92406   0.82437   0.00000  Uiso   1.00
H32    H     0.37607   0.04568   0.84281   0.00000  Uiso   1.00
H33    H     0.40118   0.85530   0.71327   0.00000  Uiso   1.00
H34    H     0.32231   0.86834   0.93669   0.00000  Uiso   1.00
H35    H     0.37858   0.18497   0.83217   0.00000  Uiso   1.00
H36    H     0.43153   0.78352   0.55905   0.00000  Uiso   1.00
H37    H     0.26522   0.81102   0.03017   0.00000  Uiso   1.00
O38    O     0.35004   0.28028   0.73753   0.00000  Uiso   1.00
O39    O     0.41951   0.75360   0.37922   0.00000  Uiso   1.00
O40    O     0.20131   0.78967   0.99731   0.00000  Uiso   1.00
N41    N     0.32369   0.19074   0.67301   0.00000  Uiso   1.00
N42    N     0.37321   0.81543   0.41766   0.00000  Uiso   1.00
N43    N     0.21772   0.84111   0.85810   0.00000  Uiso   1.00
N44    N     0.36118   0.17493   0.78324   0.00000  Uiso   1.00
N45    N     0.41069   0.79962   0.52789   0.00000  Uiso   1.00
N46    N     0.25520   0.82531   0.96833   0.00000  Uiso   1.00
C47    C     0.30157   0.45051   0.13992   0.00000  Uiso   1.00
C48    C     0.31682   0.51286   0.17599   0.00000  Uiso   1.00
C49    C     0.30877   0.57408   0.14490   0.00000  Uiso   1.00
C50    C     0.32553   0.62491   0.18677   0.00000  Uiso   1.00
C51    C     0.34559   0.72325   0.23203   0.00000  Uiso   1.00
C52    C     0.33047   0.40942   0.10561   0.00000  Uiso   1.00
C53    C     0.33389   0.38368   0.01535   0.00000  Uiso   1.00
C54    C     0.36214   0.34744   0.99797   0.00000  Uiso   1.00
C55    C     0.40338   0.28515   0.93398   0.00000  Uiso   1.00
C56    C     0.28762   0.41651   0.22699   0.00000  Uiso   1.00
C57    C     0.25501   0.39671   0.23879   0.00000  Uiso   1.00
C58    C     0.24718   0.36642   0.32361   0.00000  Uiso   1.00
C59    C     0.22188   0.31515   0.44809   0.00000  Uiso   1.00
C60    C     0.34565   0.43192   0.26955   0.00000  Uiso   1.00
C61    C     0.34076   0.50275   0.24640   0.00000  Uiso   1.00
C62    C     0.35754   0.55351   0.28832   0.00000  Uiso   1.00
C63    C     0.34952   0.61480   0.25731   0.00000  Uiso   1.00
C64    C     0.35441   0.39933   0.17601   0.00000  Uiso   1.00
C65    C     0.38266   0.36311   0.15876   0.00000  Uiso   1.00
C66    C     0.38613   0.33732   0.06850   0.00000  Uiso   1.00
C67    C     0.31156   0.40642   0.29741   0.00000  Uiso   1.00
C68    C     0.30378   0.37615   0.38222   0.00000  Uiso   1.00
C69    C     0.27117   0.35631   0.39415   0.00000  Uiso   1.00
H70    H     0.28293   0.45837   0.08510   0.00000  Uiso   1.00
H71    H     0.29024   0.58187   0.09041   0.00000  Uiso   1.00
H72    H     0.31536   0.39150   0.96088   0.00000  Uiso   1.00
H73    H     0.23649   0.40453   0.18429   0.00000  Uiso   1.00
H74    H     0.30892   0.71434   0.12732   0.00000  Uiso   1.00
H75    H     0.36188   0.31290   0.85420   0.00000  Uiso   1.00
H76    H     0.19556   0.34040   0.32532   0.00000  Uiso   1.00
H77    H     0.36429   0.42406   0.32437   0.00000  Uiso   1.00
H78    H     0.37607   0.54568   0.34281   0.00000  Uiso   1.00
H79    H     0.40118   0.35530   0.21327   0.00000  Uiso   1.00
H80    H     0.32231   0.36834   0.43669   0.00000  Uiso   1.00
H81    H     0.37858   0.68497   0.33217   0.00000  Uiso   1.00
H82    H     0.43153   0.28352   0.05905   0.00000  Uiso   1.00
H83    H     0.26522   0.31102   0.53017   0.00000  Uiso   1.00
O84    O     0.35004   0.78028   0.23753   0.00000  Uiso   1.00
O85    O     0.41951   0.25360   0.87922   0.00000  Uiso   1.00
O86    O     0.20131   0.28967   0.49731   0.00000  Uiso   1.00
N87    N     0.32369   0.69074   0.17301   0.00000  Uiso   1.00
N88    N     0.37321   0.31543   0.91766   0.00000  Uiso   1.00
N89    N     0.21772   0.34111   0.35810   0.00000  Uiso   1.00
N90    N     0.36118   0.67493   0.28324   0.00000  Uiso   1.00
N91    N     0.41069   0.29962   0.02789   0.00000  Uiso   1.00
N92    N     0.25520   0.32531   0.46833   0.00000  Uiso   1.00
C93    C     0.80157   0.95051   0.13992   0.00000  Uiso   1.00
C94    C     0.81682   0.01286   0.17599   0.00000  Uiso   1.00
C95    C     0.80877   0.07408   0.14490   0.00000  Uiso   1.00
C96    C     0.82553   0.12491   0.18677   0.00000  Uiso   1.00
C97    C     0.84559   0.22325   0.23203   0.00000  Uiso   1.00
C98    C     0.83047   0.90942   0.10561   0.00000  Uiso   1.00
C99    C     0.83389   0.88368   0.01535   0.00000  Uiso   1.00
C100   C     0.86214   0.84744   0.99797   0.00000  Uiso   1.00
C101   C     0.90338   0.78515   0.93398   0.00000  Uiso   1.00
C102   C     0.78762   0.91651   0.22699   0.00000  Uiso   1.00
C103   C     0.75501   0.89671   0.23879   0.00000  Uiso   1.00
C104   C     0.74718   0.86642   0.32361   0.00000  Uiso   1.00
C105   C     0.72188   0.81515   0.44809   0.00000  Uiso   1.00
C106   C     0.84565   0.93192   0.26955   0.00000  Uiso   1.00
C107   C     0.84076   0.00275   0.24640   0.00000  Uiso   1.00
C108   C     0.85754   0.05351   0.28832   0.00000  Uiso   1.00
C109   C     0.84952   0.11480   0.25731   0.00000  Uiso   1.00
C110   C     0.85441   0.89933   0.17601   0.00000  Uiso   1.00
C111   C     0.88266   0.86311   0.15876   0.00000  Uiso   1.00
C112   C     0.88613   0.83732   0.06850   0.00000  Uiso   1.00
C113   C     0.81156   0.90642   0.29741   0.00000  Uiso   1.00
C114   C     0.80378   0.87615   0.38222   0.00000  Uiso   1.00
C115   C     0.77117   0.85631   0.39415   0.00000  Uiso   1.00
H116   H     0.78293   0.95837   0.08510   0.00000  Uiso   1.00
H117   H     0.79024   0.08187   0.09041   0.00000  Uiso   1.00
H118   H     0.81536   0.89150   0.96088   0.00000  Uiso   1.00
H119   H     0.73649   0.90453   0.18429   0.00000  Uiso   1.00
H120   H     0.80892   0.21434   0.12732   0.00000  Uiso   1.00
H121   H     0.86188   0.81290   0.85420   0.00000  Uiso   1.00
H122   H     0.69556   0.84040   0.32532   0.00000  Uiso   1.00
H123   H     0.86429   0.92406   0.32437   0.00000  Uiso   1.00
H124   H     0.87607   0.04568   0.34281   0.00000  Uiso   1.00
H125   H     0.90118   0.85530   0.21327   0.00000  Uiso   1.00
H126   H     0.82231   0.86834   0.43669   0.00000  Uiso   1.00
H127   H     0.87858   0.18497   0.33217   0.00000  Uiso   1.00
H128   H     0.93153   0.78352   0.05905   0.00000  Uiso   1.00
H129   H     0.76522   0.81102   0.53017   0.00000  Uiso   1.00
O130   O     0.85004   0.28028   0.23753   0.00000  Uiso   1.00
O131   O     0.91951   0.75360   0.87922   0.00000  Uiso   1.00
O132   O     0.70131   0.78967   0.49731   0.00000  Uiso   1.00
N133   N     0.82369   0.19074   0.17301   0.00000  Uiso   1.00
N134   N     0.87321   0.81543   0.91766   0.00000  Uiso   1.00
N135   N     0.71772   0.84111   0.35810   0.00000  Uiso   1.00
N136   N     0.86118   0.17493   0.28324   0.00000  Uiso   1.00
N137   N     0.91069   0.79962   0.02789   0.00000  Uiso   1.00
N138   N     0.75520   0.82531   0.46833   0.00000  Uiso   1.00
C139   C     0.80157   0.45051   0.63992   0.00000  Uiso   1.00
C140   C     0.81682   0.51286   0.67599   0.00000  Uiso   1.00
C141   C     0.80877   0.57408   0.64490   0.00000  Uiso   1.00
C142   C     0.82553   0.62491   0.68677   0.00000  Uiso   1.00
C143   C     0.84559   0.72325   0.73203   0.00000  Uiso   1.00
C144   C     0.83047   0.40942   0.60561   0.00000  Uiso   1.00
C145   C     0.83389   0.38368   0.51535   0.00000  Uiso   1.00
C146   C     0.86214   0.34744   0.49797   0.00000  Uiso   1.00
C147   C     0.90338   0.28515   0.43398   0.00000  Uiso   1.00
C148   C     0.78762   0.41651   0.72699   0.00000  Uiso   1.00
C149   C     0.75501   0.39671   0.73879   0.00000  Uiso   1.00
C150   C     0.74718   0.36642   0.82361   0.00000  Uiso   1.00
C151   C     0.72188   0.31515   0.94809   0.00000  Uiso   1.00
C152   C     0.84565   0.43192   0.76955   0.00000  Uiso   1.00
C153   C     0.84076   0.50275   0.74640   0.00000  Uiso   1.00
C154   C     0.85754   0.55351   0.78832   0.00000  Uiso   1.00
C155   C     0.84952   0.61480   0.75731   0.00000  Uiso   1.00
C156   C     0.85441   0.39933   0.67601   0.00000  Uiso   1.00
C157   C     0.88266   0.36311   0.65876   0.00000  Uiso   1.00
C158   C     0.88613   0.33732   0.56850   0.00000  Uiso   1.00
C159   C     0.81156   0.40642   0.79741   0.00000  Uiso   1.00
C160   C     0.80378   0.37615   0.88222   0.00000  Uiso   1.00
C161   C     0.77117   0.35631   0.89415   0.00000  Uiso   1.00
H162   H     0.78293   0.45837   0.58510   0.00000  Uiso   1.00
H163   H     0.79024   0.58187   0.59041   0.00000  Uiso   1.00
H164   H     0.81536   0.39150   0.46088   0.00000  Uiso   1.00
H165   H     0.73649   0.40453   0.68429   0.00000  Uiso   1.00
H166   H     0.80892   0.71434   0.62732   0.00000  Uiso   1.00
H167   H     0.86188   0.31290   0.35420   0.00000  Uiso   1.00
H168   H     0.69556   0.34040   0.82532   0.00000  Uiso   1.00
H169   H     0.86429   0.42406   0.82437   0.00000  Uiso   1.00
H170   H     0.87607   0.54568   0.84281   0.00000  Uiso   1.00
H171   H     0.90118   0.35530   0.71327   0.00000  Uiso   1.00
H172   H     0.82231   0.36834   0.93669   0.00000  Uiso   1.00
H173   H     0.87858   0.68497   0.83217   0.00000  Uiso   1.00
H174   H     0.93153   0.28352   0.55905   0.00000  Uiso   1.00
H175   H     0.76522   0.31102   0.03017   0.00000  Uiso   1.00
O176   O     0.85004   0.78028   0.73753   0.00000  Uiso   1.00
O177   O     0.91951   0.25360   0.37922   0.00000  Uiso   1.00
O178   O     0.70131   0.28967   0.99731   0.00000  Uiso   1.00
N179   N     0.82369   0.69074   0.67301   0.00000  Uiso   1.00
N180   N     0.87321   0.31543   0.41766   0.00000  Uiso   1.00
N181   N     0.71772   0.34111   0.85810   0.00000  Uiso   1.00
N182   N     0.86118   0.67493   0.78324   0.00000  Uiso   1.00
N183   N     0.91069   0.29962   0.52789   0.00000  Uiso   1.00
N184   N     0.75520   0.32531   0.96833   0.00000  Uiso   1.00
C185   C     0.69843   0.04949   0.63992   0.00000  Uiso   1.00
C186   C     0.68318   0.98714   0.67599   0.00000  Uiso   1.00
C187   C     0.69123   0.92592   0.64490   0.00000  Uiso   1.00
C188   C     0.67447   0.87509   0.68677   0.00000  Uiso   1.00
C189   C     0.65441   0.77675   0.73203   0.00000  Uiso   1.00
C190   C     0.66953   0.09058   0.60561   0.00000  Uiso   1.00
C191   C     0.66611   0.11632   0.51535   0.00000  Uiso   1.00
C192   C     0.63786   0.15256   0.49797   0.00000  Uiso   1.00
C193   C     0.59662   0.21485   0.43398   0.00000  Uiso   1.00
C194   C     0.71238   0.08349   0.72699   0.00000  Uiso   1.00
C195   C     0.74499   0.10329   0.73879   0.00000  Uiso   1.00
C196   C     0.75282   0.13358   0.82361   0.00000  Uiso   1.00
C197   C     0.77812   0.18485   0.94809   0.00000  Uiso   1.00
C198   C     0.65435   0.06808   0.76955   0.00000  Uiso   1.00
C199   C     0.65924   0.99725   0.74640   0.00000  Uiso   1.00
C200   C     0.64246   0.94649   0.78832   0.00000  Uiso   1.00
C201   C     0.65048   0.88520   0.75731   0.00000  Uiso   1.00
C202   C     0.64559   0.10067   0.67601   0.00000  Uiso   1.00
C203   C     0.61734   0.13689   0.65876   0.00000  Uiso   1.00
C204   C     0.61387   0.16268   0.56850   0.00000  Uiso   1.00
C205   C     0.68844   0.09358   0.79741   0.00000  Uiso   1.00
C206   C     0.69622   0.12385   0.88222   0.00000  Uiso   1.00
C207   C     0.72883   0.14369   0.89415   0.00000  Uiso   1.00
H208   H     0.71707   0.04163   0.58510   0.00000  Uiso   1.00
H209   H     0.70976   0.91813   0.59041   0.00000  Uiso   1.00
H210   H     0.68464   0.10850   0.46088   0.00000  Uiso   1.00
H211   H     0.76351   0.09547   0.68429   0.00000  Uiso   1.00
H212   H     0.69108   0.78566   0.62732   0.00000  Uiso   1.00
H213   H     0.63812   0.18710   0.35420   0.00000  Uiso   1.00
H214   H     0.80444   0.15960   0.82532   0.00000  Uiso   1.00
H215   H     0.63571   0.07594   0.82437   0.00000  Uiso   1.00
H216   H     0.62393   0.95432   0.84281   0.00000  Uiso   1.00
H217   H     0.59882   0.14470   0.71327   0.00000  Uiso   1.00
H218   H     0.67769   0.13166   0.93669   0.00000  Uiso   1.00
H219   H     0.62142   0.81503   0.83217   0.00000  Uiso   1.00
H220   H     0.56847   0.21648   0.55905   0.00000  Uiso   1.00
H221   H     0.73478   0.18898   0.03017   0.00000  Uiso   1.00
O222   O     0.64996   0.71972   0.73753   0.00000  Uiso   1.00
O223   O     0.58049   0.24640   0.37922   0.00000  Uiso   1.00
O224   O     0.79869   0.21033   0.99731   0.00000  Uiso   1.00
N225   N     0.67631   0.80926   0.67301   0.00000  Uiso   1.00
N226   N     0.62679   0.18457   0.41766   0.00000  Uiso   1.00
N227   N     0.78228   0.15889   0.85810   0.00000  Uiso   1.00
N228   N     0.63882   0.82507   0.78324   0.00000  Uiso   1.00
N229   N     0.58931   0.20038   0.52789   0.00000  Uiso   1.00
N230   N     0.74480   0.17469   0.96833   0.00000  Uiso   1.00
C231   C     0.69843   0.54949   0.13992   0.00000  Uiso   1.00
C232   C     0.68318   0.48714   0.17599   0.00000  Uiso   1.00
C233   C     0.69123   0.42592   0.14490   0.00000  Uiso   1.00
C234   C     0.67447   0.37509   0.18677   0.00000  Uiso   1.00
C235   C     0.65441   0.27675   0.23203   0.00000  Uiso   1.00
C236   C     0.66953   0.59058   0.10561   0.00000  Uiso   1.00
C237   C     0.66611   0.61632   0.01535   0.00000  Uiso   1.00
C238   C     0.63786   0.65256   0.99797   0.00000  Uiso   1.00
C239   C     0.59662   0.71485   0.93398   0.00000  Uiso   1.00
C240   C     0.71238   0.58349   0.22699   0.00000  Uiso   1.00
C241   C     0.74499   0.60329   0.23879   0.00000  Uiso   1.00
C242   C     0.75282   0.63358   0.32361   0.00000  Uiso   1.00
C243   C     0.77812   0.68485   0.44809   0.00000  Uiso   1.00
C244   C     0.65435   0.56808   0.26955   0.00000  Uiso   1.00
C245   C     0.65924   0.49725   0.24640   0.00000  Uiso   1.00
C246   C     0.64246   0.44649   0.28832   0.00000  Uiso   1.00
C247   C     0.65048   0.38520   0.25731   0.00000  Uiso   1.00
C248   C     0.64559   0.60067   0.17601   0.00000  Uiso   1.00
C249   C     0.61734   0.63689   0.15876   0.00000  Uiso   1.00
C250   C     0.61387   0.66268   0.06850   0.00000  Uiso   1.00
C251   C     0.68844   0.59358   0.29741   0.00000  Uiso   1.00
C252   C     0.69622   0.62385   0.38222   0.00000  Uiso   1.00
C253   C     0.72883   0.64369   0.39415   0.00000  Uiso   1.00
H254   H     0.71707   0.54163   0.08510   0.00000  Uiso   1.00
H255   H     0.70976   0.41813   0.09041   0.00000  Uiso   1.00
H256   H     0.68464   0.60850   0.96088   0.00000  Uiso   1.00
H257   H     0.76351   0.59547   0.18429   0.00000  Uiso   1.00
H258   H     0.69108   0.28566   0.12732   0.00000  Uiso   1.00
H259   H     0.63812   0.68710   0.85420   0.00000  Uiso   1.00
H260   H     0.80444   0.65960   0.32532   0.00000  Uiso   1.00
H261   H     0.63571   0.57594   0.32437   0.00000  Uiso   1.00
H262   H     0.62393   0.45432   0.34281   0.00000  Uiso   1.00
H263   H     0.59882   0.64470   0.21327   0.00000  Uiso   1.00
H264   H     0.67769   0.63166   0.43669   0.00000  Uiso   1.00
H265   H     0.62142   0.31503   0.33217   0.00000  Uiso   1.00
H266   H     0.56847   0.71648   0.05905   0.00000  Uiso   1.00
H267   H     0.73478   0.68898   0.53017   0.00000  Uiso   1.00
O268   O     0.64996   0.21972   0.23753   0.00000  Uiso   1.00
O269   O     0.58049   0.74640   0.87922   0.00000  Uiso   1.00
O270   O     0.79869   0.71033   0.49731   0.00000  Uiso   1.00
N271   N     0.67631   0.30926   0.17301   0.00000  Uiso   1.00
N272   N     0.62679   0.68457   0.91766   0.00000  Uiso   1.00
N273   N     0.78228   0.65889   0.35810   0.00000  Uiso   1.00
N274   N     0.63882   0.32507   0.28324   0.00000  Uiso   1.00
N275   N     0.58931   0.70038   0.02789   0.00000  Uiso   1.00
N276   N     0.74480   0.67469   0.46833   0.00000  Uiso   1.00
C277   C     0.19843   0.04949   0.13992   0.00000  Uiso   1.00
C278   C     0.18318   0.98714   0.17599   0.00000  Uiso   1.00
C279   C     0.19123   0.92592   0.14490   0.00000  Uiso   1.00
C280   C     0.17447   0.87509   0.18677   0.00000  Uiso   1.00
C281   C     0.15441   0.77675   0.23203   0.00000  Uiso   1.00
C282   C     0.16953   0.09058   0.10561   0.00000  Uiso   1.00
C283   C     0.16611   0.11632   0.01535   0.00000  Uiso   1.00
C284   C     0.13786   0.15256   0.99797   0.00000  Uiso   1.00
C285   C     0.09662   0.21485   0.93398   0.00000  Uiso   1.00
C286   C     0.21238   0.08349   0.22699   0.00000  Uiso   1.00
C287   C     0.24499   0.10329   0.23879   0.00000  Uiso   1.00
C288   C     0.25282   0.13358   0.32361   0.00000  Uiso   1.00
C289   C     0.27812   0.18485   0.44809   0.00000  Uiso   1.00
C290   C     0.15435   0.06808   0.26955   0.00000  Uiso   1.00
C291   C     0.15924   0.99725   0.24640   0.00000  Uiso   1.00
C292   C     0.14246   0.94649   0.28832   0.00000  Uiso   1.00
C293   C     0.15048   0.88520   0.25731   0.00000  Uiso   1.00
C294   C     0.14559   0.10067   0.17601   0.00000  Uiso   1.00
C295   C     0.11734   0.13689   0.15876   0.00000  Uiso   1.00
C296   C     0.11387   0.16268   0.06850   0.00000  Uiso   1.00
C297   C     0.18844   0.09358   0.29741   0.00000  Uiso   1.00
C298   C     0.19622   0.12385   0.38222   0.00000  Uiso   1.00
C299   C     0.22883   0.14369   0.39415   0.00000  Uiso   1.00
H300   H     0.21707   0.04163   0.08510   0.00000  Uiso   1.00
H301   H     0.20976   0.91813   0.09041   0.00000  Uiso   1.00
H302   H     0.18464   0.10850   0.96088   0.00000  Uiso   1.00
H303   H     0.26351   0.09547   0.18429   0.00000  Uiso   1.00
H304   H     0.19108   0.78566   0.12732   0.00000  Uiso   1.00
H305   H     0.13812   0.18710   0.85420   0.00000  Uiso   1.00
H306   H     0.30444   0.15960   0.32532   0.00000  Uiso   1.00
H307   H     0.13571   0.07594   0.32437   0.00000  Uiso   1.00
H308   H     0.12393   0.95432   0.34281   0.00000  Uiso   1.00
H309   H     0.09882   0.14470   0.21327   0.00000  Uiso   1.00
H310   H     0.17769   0.13166   0.43669   0.00000  Uiso   1.00
H311   H     0.12142   0.81503   0.33217   0.00000  Uiso   1.00
H312   H     0.06847   0.21648   0.05905   0.00000  Uiso   1.00
H313   H     0.23478   0.18898   0.53017   0.00000  Uiso   1.00
O314   O     0.14996   0.71972   0.23753   0.00000  Uiso   1.00
O315   O     0.08049   0.24640   0.87922   0.00000  Uiso   1.00
O316   O     0.29869   0.21033   0.49731   0.00000  Uiso   1.00
N317   N     0.17631   0.80926   0.17301   0.00000  Uiso   1.00
N318   N     0.12679   0.18457   0.91766   0.00000  Uiso   1.00
N319   N     0.28228   0.15889   0.35810   0.00000  Uiso   1.00
N320   N     0.13882   0.82507   0.28324   0.00000  Uiso   1.00
N321   N     0.08931   0.20038   0.02789   0.00000  Uiso   1.00
N322   N     0.24480   0.17469   0.46833   0.00000  Uiso   1.00
C323   C     0.19843   0.54949   0.63992   0.00000  Uiso   1.00
C324   C     0.18318   0.48714   0.67599   0.00000  Uiso   1.00
C325   C     0.19123   0.42592   0.64490   0.00000  Uiso   1.00
C326   C     0.17447   0.37509   0.68677   0.00000  Uiso   1.00
C327   C     0.15441   0.27675   0.73203   0.00000  Uiso   1.00
C328   C     0.16953   0.59058   0.60561   0.00000  Uiso   1.00
C329   C     0.16611   0.61632   0.51535   0.00000  Uiso   1.00
C330   C     0.13786   0.65256   0.49797   0.00000  Uiso   1.00
C331   C     0.09662   0.71485   0.43398   0.00000  Uiso   1.00
C332   C     0.21238   0.58349   0.72699   0.00000  Uiso   1.00
C333   C     0.24499   0.60329   0.73879   0.00000  Uiso   1.00
C334   C     0.25282   0.63358   0.82361   0.00000  Uiso   1.00
C335   C     0.27812   0.68485   0.94809   0.00000  Uiso   1.00
C336   C     0.15435   0.56808   0.76955   0.00000  Uiso   1.00
C337   C     0.15924   0.49725   0.74640   0.00000  Uiso   1.00
C338   C     0.14246   0.44649   0.78832   0.00000  Uiso   1.00
C339   C     0.15048   0.38520   0.75731   0.00000  Uiso   1.00
C340   C     0.14559   0.60067   0.67601   0.00000  Uiso   1.00
C341   C     0.11734   0.63689   0.65876   0.00000  Uiso   1.00
C342   C     0.11387   0.66268   0.56850   0.00000  Uiso   1.00
C343   C     0.18844   0.59358   0.79741   0.00000  Uiso   1.00
C344   C     0.19622   0.62385   0.88222   0.00000  Uiso   1.00
C345   C     0.22883   0.64369   0.89415   0.00000  Uiso   1.00
H346   H     0.21707   0.54163   0.58510   0.00000  Uiso   1.00
H347   H     0.20976   0.41813   0.59041   0.00000  Uiso   1.00
H348   H     0.18464   0.60850   0.46088   0.00000  Uiso   1.00
H349   H     0.26351   0.59547   0.68429   0.00000  Uiso   1.00
H350   H     0.19108   0.28566   0.62732   0.00000  Uiso   1.00
H351   H     0.13812   0.68710   0.35420   0.00000  Uiso   1.00
H352   H     0.30444   0.65960   0.82532   0.00000  Uiso   1.00
H353   H     0.13571   0.57594   0.82437   0.00000  Uiso   1.00
H354   H     0.12393   0.45432   0.84281   0.00000  Uiso   1.00
H355   H     0.09882   0.64470   0.71327   0.00000  Uiso   1.00
H356   H     0.17769   0.63166   0.93669   0.00000  Uiso   1.00
H357   H     0.12142   0.31503   0.83217   0.00000  Uiso   1.00
H358   H     0.06847   0.71648   0.55905   0.00000  Uiso   1.00
H359   H     0.23478   0.68898   0.03017   0.00000  Uiso   1.00
O360   O     0.14996   0.21972   0.73753   0.00000  Uiso   1.00
O361   O     0.08049   0.74640   0.37922   0.00000  Uiso   1.00
O362   O     0.29869   0.71033   0.99731   0.00000  Uiso   1.00
N363   N     0.17631   0.30926   0.67301   0.00000  Uiso   1.00
N364   N     0.12679   0.68457   0.41766   0.00000  Uiso   1.00
N365   N     0.28228   0.65889   0.85810   0.00000  Uiso   1.00
N366   N     0.13882   0.32507   0.78324   0.00000  Uiso   1.00
N367   N     0.08931   0.70038   0.52789   0.00000  Uiso   1.00
N368   N     0.24480   0.67469   0.96833   0.00000  Uiso   1.00
C369   C     0.55157   0.29949   0.88992   0.00000  Uiso   1.00
C370   C     0.56682   0.23714   0.92599   0.00000  Uiso   1.00
C371   C     0.55877   0.17592   0.89490   0.00000  Uiso   1.00
C372   C     0.57553   0.12509   0.93677   0.00000  Uiso   1.00
C373   C     0.59559   0.02675   0.98203   0.00000  Uiso   1.00
C374   C     0.58047   0.34058   0.85561   0.00000  Uiso   1.00
C375   C     0.58389   0.36632   0.76535   0.00000  Uiso   1.00
C376   C     0.61214   0.40256   0.74797   0.00000  Uiso   1.00
C377   C     0.65338   0.46485   0.68398   0.00000  Uiso   1.00
C378   C     0.53762   0.33349   0.97699   0.00000  Uiso   1.00
C379   C     0.50501   0.35329   0.98879   0.00000  Uiso   1.00
C380   C     0.49718   0.38358   0.07361   0.00000  Uiso   1.00
C381   C     0.47188   0.43485   0.19809   0.00000  Uiso   1.00
C382   C     0.59565   0.31808   0.01955   0.00000  Uiso   1.00
C383   C     0.59076   0.24725   0.99640   0.00000  Uiso   1.00
C384   C     0.60754   0.19649   0.03832   0.00000  Uiso   1.00
C385   C     0.59952   0.13520   0.00731   0.00000  Uiso   1.00
C386   C     0.60441   0.35067   0.92601   0.00000  Uiso   1.00
C387   C     0.63266   0.38689   0.90876   0.00000  Uiso   1.00
C388   C     0.63613   0.41268   0.81850   0.00000  Uiso   1.00
C389   C     0.56156   0.34358   0.04741   0.00000  Uiso   1.00
C390   C     0.55378   0.37385   0.13222   0.00000  Uiso   1.00
C391   C     0.52117   0.39369   0.14415   0.00000  Uiso   1.00
H392   H     0.53293   0.29163   0.83510   0.00000  Uiso   1.00
H393   H     0.54024   0.16813   0.84041   0.00000  Uiso   1.00
H394   H     0.56536   0.35850   0.71088   0.00000  Uiso   1.00
H395   H     0.48649   0.34547   0.93429   0.00000  Uiso   1.00
H396   H     0.55892   0.03566   0.87732   0.00000  Uiso   1.00
H397   H     0.61188   0.43710   0.60420   0.00000  Uiso   1.00
H398   H     0.44556   0.40960   0.07532   0.00000  Uiso   1.00
H399   H     0.61429   0.32594   0.07437   0.00000  Uiso   1.00
H400   H     0.62607   0.20432   0.09281   0.00000  Uiso   1.00
H401   H     0.65118   0.39470   0.96327   0.00000  Uiso   1.00
H402   H     0.57231   0.38166   0.18669   0.00000  Uiso   1.00
H403   H     0.62858   0.06503   0.08217   0.00000  Uiso   1.00
H404   H     0.68153   0.46648   0.80905   0.00000  Uiso   1.00
H405   H     0.51522   0.43898   0.28017   0.00000  Uiso   1.00
O406   O     0.60004   0.96972   0.98753   0.00000  Uiso   1.00
O407   O     0.66951   0.49640   0.62922   0.00000  Uiso   1.00
O408   O     0.45131   0.46033   0.24731   0.00000  Uiso   1.00
N409   N     0.57369   0.05926   0.92301   0.00000  Uiso   1.00
N410   N     0.62321   0.43457   0.66766   0.00000  Uiso   1.00
N411   N     0.46772   0.40889   0.10810   0.00000  Uiso   1.00
N412   N     0.61118   0.07507   0.03324   0.00000  Uiso   1.00
N413   N     0.66069   0.45038   0.77789   0.00000  Uiso   1.00
N414   N     0.50520   0.42469   0.21833   0.00000  Uiso   1.00
C415   C     0.55157   0.79949   0.38992   0.00000  Uiso   1.00
C416   C     0.56682   0.73714   0.42599   0.00000  Uiso   1.00
C417   C     0.55877   0.67592   0.39490   0.00000  Uiso   1.00
C418   C     0.57553   0.62509   0.43677   0.00000  Uiso   1.00
C419   C     0.59559   0.52675   0.48203   0.00000  Uiso   1.00
C420   C     0.58047   0.84058   0.35561   0.00000  Uiso   1.00
C421   C     0.58389   0.86632   0.26535   0.00000  Uiso   1.00
C422   C     0.61214   0.90256   0.24797   0.00000  Uiso   1.00
C423   C     0.65338   0.96485   0.18398   0.00000  Uiso   1.00
C424   C     0.53762   0.83349   0.47699   0.00000  Uiso   1.00
C425   C     0.50501   0.85329   0.48879   0.00000  Uiso   1.00
C426   C     0.49718   0.88358   0.57361   0.00000  Uiso   1.00
C427   C     0.47188   0.93485   0.69809   0.00000  Uiso   1.00
C428   C     0.59565   0.81808   0.51955   0.00000  Uiso   1.00
C429   C     0.59076   0.74725   0.49640   0.00000  Uiso   1.00
C430   C     0.60754   0.69649   0.53832   0.00000  Uiso   1.00
C431   C     0.59952   0.63520   0.50731   0.00000  Uiso   1.00
C432   C     0.60441   0.85067   0.42601   0.00000  Uiso   1.00
C433   C     0.63266   0.88689   0.40876   0.00000  Uiso   1.00
C434   C     0.63613   0.91268   0.31850   0.00000  Uiso   1.00
C435   C     0.56156   0.84358   0.54741   0.00000  Uiso   1.00
C436   C     0.55378   0.87385   0.63222   0.00000  Uiso   1.00
C437   C     0.52117   0.89369   0.64415   0.00000  Uiso   1.00
H438   H     0.53293   0.79163   0.33510   0.00000  Uiso   1.00
H439   H     0.54024   0.66813   0.34041   0.00000  Uiso   1.00
H440   H     0.56536   0.85850   0.21088   0.00000  Uiso   1.00
H441   H     0.48649   0.84547   0.43429   0.00000  Uiso   1.00
H442   H     0.55892   0.53566   0.37732   0.00000  Uiso   1.00
H443   H     0.61188   0.93710   0.10420   0.00000  Uiso   1.00
H444   H     0.44556   0.90960   0.57532   0.00000  Uiso   1.00
H445   H     0.61429   0.82594   0.57437   0.00000  Uiso   1.00
H446   H     0.62607   0.70432   0.59281   0.00000  Uiso   1.00
H447   H     0.65118   0.89470   0.46327   0.00000  Uiso   1.00
H448   H     0.57231   0.88166   0.68669   0.00000  Uiso   1.00
H449   H     0.62858   0.56503   0.58217   0.00000  Uiso   1.00
H450   H     0.68153   0.96648   0.30905   0.00000  Uiso   1.00
H451   H     0.51522   0.93898   0.78017   0.00000  Uiso   1.00
O452   O     0.60004   0.46972   0.48753   0.00000  Uiso   1.00
O453   O     0.66951   0.99640   0.12922   0.00000  Uiso   1.00
O454   O     0.45131   0.96033   0.74731   0.00000  Uiso   1.00
N455   N     0.57369   0.55926   0.42301   0.00000  Uiso   1.00
N456   N     0.62321   0.93457   0.16766   0.00000  Uiso   1.00
N457   N     0.46772   0.90889   0.60810   0.00000  Uiso   1.00
N458   N     0.61118   0.57507   0.53324   0.00000  Uiso   1.00
N459   N     0.66069   0.95038   0.27789   0.00000  Uiso   1.00
N460   N     0.50520   0.92469   0.71833   0.00000  Uiso   1.00
C461   C     0.05157   0.29949   0.38992   0.00000  Uiso   1.00
C462   C     0.06682   0.23714   0.42599   0.00000  Uiso   1.00
C463   C     0.05877   0.17592   0.39490   0.00000  Uiso   1.00
C464   C     0.07553   0.12509   0.43677   0.00000  Uiso   1.00
C465   C     0.09559   0.02675   0.48203   0.00000  Uiso   1.00
C466   C     0.08047   0.34058   0.35561   0.00000  Uiso   1.00
C467   C     0.08389   0.36632   0.26535   0.00000  Uiso   1.00
C468   C     0.11214   0.40256   0.24797   0.00000  Uiso   1.00
C469   C     0.15338   0.46485   0.18398   0.00000  Uiso   1.00
C470   C     0.03762   0.33349   0.47699   0.00000  Uiso   1.00
C471   C     0.00501   0.35329   0.48879   0.00000  Uiso   1.00
C472   C     0.99718   0.38358   0.57361   0.00000  Uiso   1.00
C473   C     0.97188   0.43485   0.69809   0.00000  Uiso   1.00
C474   C     0.09565   0.31808   0.51955   0.00000  Uiso   1.00
C475   C     0.09076   0.24725   0.49640   0.00000  Uiso   1.00
C476   C     0.10754   0.19649   0.53832   0.00000  Uiso   1.00
C477   C     0.09952   0.13520   0.50731   0.00000  Uiso   1.00
C478   C     0.10441   0.35067   0.42601   0.00000  Uiso   1.00
C479   C     0.13266   0.38689   0.40876   0.00000  Uiso   1.00
C480   C     0.13613   0.41268   0.31850   0.00000  Uiso   1.00
C481   C     0.06156   0.34358   0.54741   0.00000  Uiso   1.00
C482   C     0.05378   0.37385   0.63222   0.00000  Uiso   1.00
C483   C     0.02117   0.39369   0.64415   0.00000  Uiso   1.00
H484   H     0.03293   0.29163   0.33510   0.00000  Uiso   1.00
H485   H     0.04024   0.16813   0.34041   0.00000  Uiso   1.00
H486   H     0.06536   0.35850   0.21088   0.00000  Uiso   1.00
H487   H     0.98649   0.34547   0.43429   0.00000  Uiso   1.00
H488   H     0.05892   0.03566   0.37732   0.00000  Uiso   1.00
H489   H     0.11188   0.43710   0.10420   0.00000  Uiso   1.00
H490   H     0.94556   0.40960   0.57532   0.00000  Uiso   1.00
H491   H     0.11429   0.32594   0.57437   0.00000  Uiso   1.00
H492   H     0.12607   0.20432   0.59281   0.00000  Uiso   1.00
H493   H     0.15118   0.39470   0.46327   0.00000  Uiso   1.00
H494   H     0.07231   0.38166   0.68669   0.00000  Uiso   1.00
H495   H     0.12858   0.06503   0.58217   0.00000  Uiso   1.00
H496   H     0.18153   0.46648   0.30905   0.00000  Uiso   1.00
H497   H     0.01522   0.43898   0.78017   0.00000  Uiso   1.00
O498   O     0.10004   0.96972   0.48753   0.00000  Uiso   1.00
O499   O     0.16951   0.49640   0.12922   0.00000  Uiso   1.00
O500   O     0.95131   0.46033   0.74731   0.00000  Uiso   1.00
N501   N     0.07369   0.05926   0.42301   0.00000  Uiso   1.00
N502   N     0.12321   0.43457   0.16766   0.00000  Uiso   1.00
N503   N     0.96772   0.40889   0.60810   0.00000  Uiso   1.00
N504   N     0.11118   0.07507   0.53324   0.00000  Uiso   1.00
N505   N     0.16069   0.45038   0.27789   0.00000  Uiso   1.00
N506   N     0.00520   0.42469   0.71833   0.00000  Uiso   1.00
C507   C     0.05157   0.79949   0.88992   0.00000  Uiso   1.00
C508   C     0.06682   0.73714   0.92599   0.00000  Uiso   1.00
C509   C     0.05877   0.67592   0.89490   0.00000  Uiso   1.00
C510   C     0.07553   0.62509   0.93677   0.00000  Uiso   1.00
C511   C     0.09559   0.52675   0.98203   0.00000  Uiso   1.00
C512   C     0.08047   0.84058   0.85561   0.00000  Uiso   1.00
C513   C     0.08389   0.86632   0.76535   0.00000  Uiso   1.00
C514   C     0.11214   0.90256   0.74797   0.00000  Uiso   1.00
C515   C     0.15338   0.96485   0.68398   0.00000  Uiso   1.00
C516   C     0.03762   0.83349   0.97699   0.00000  Uiso   1.00
C517   C     0.00501   0.85329   0.98879   0.00000  Uiso   1.00
C518   C     0.99718   0.88358   0.07361   0.00000  Uiso   1.00
C519   C     0.97188   0.93485   0.19809   0.00000  Uiso   1.00
C520   C     0.09565   0.81808   0.01955   0.00000  Uiso   1.00
C521   C     0.09076   0.74725   0.99640   0.00000  Uiso   1.00
C522   C     0.10754   0.69649   0.03832   0.00000  Uiso   1.00
C523   C     0.09952   0.63520   0.00731   0.00000  Uiso   1.00
C524   C     0.10441   0.85067   0.92601   0.00000  Uiso   1.00
C525   C     0.13266   0.88689   0.90876   0.00000  Uiso   1.00
C526   C     0.13613   0.91268   0.81850   0.00000  Uiso   1.00
C527   C     0.06156   0.84358   0.04741   0.00000  Uiso   1.00
C528   C     0.05378   0.87385   0.13222   0.00000  Uiso   1.00
C529   C     0.02117   0.89369   0.14415   0.00000  Uiso   1.00
H530   H     0.03293   0.79163   0.83510   0.00000  Uiso   1.00
H531   H     0.04024   0.66813   0.84041   0.00000  Uiso   1.00
H532   H     0.06536   0.85850   0.71088   0.00000  Uiso   1.00
H533   H     0.98649   0.84547   0.93429   0.00000  Uiso   1.00
H534   H     0.05892   0.53566   0.87732   0.00000  Uiso   1.00
H535   H     0.11188   0.93710   0.60420   0.00000  Uiso   1.00
H536   H     0.94556   0.90960   0.07532   0.00000  Uiso   1.00
H537   H     0.11429   0.82594   0.07437   0.00000  Uiso   1.00
H538   H     0.12607   0.70432   0.09281   0.00000  Uiso   1.00
H539   H     0.15118   0.89470   0.96327   0.00000  Uiso   1.00
H540   H     0.07231   0.88166   0.18669   0.00000  Uiso   1.00
H541   H     0.12858   0.56503   0.08217   0.00000  Uiso   1.00
H542   H     0.18153   0.96648   0.80905   0.00000  Uiso   1.00
H543   H     0.01522   0.93898   0.28017   0.00000  Uiso   1.00
O544   O     0.10004   0.46972   0.98753   0.00000  Uiso   1.00
O545   O     0.16951   0.99640   0.62922   0.00000  Uiso   1.00
O546   O     0.95131   0.96033   0.24731   0.00000  Uiso   1.00
N547   N     0.07369   0.55926   0.92301   0.00000  Uiso   1.00
N548   N     0.12321   0.93457   0.66766   0.00000  Uiso   1.00
N549   N     0.96772   0.90889   0.10810   0.00000  Uiso   1.00
N550   N     0.11118   0.57507   0.03324   0.00000  Uiso   1.00
N551   N     0.16069   0.95038   0.77789   0.00000  Uiso   1.00
N552   N     0.00520   0.92469   0.21833   0.00000  Uiso   1.00
C553   C     0.94843   0.20051   0.88992   0.00000  Uiso   1.00
C554   C     0.93318   0.26286   0.92599   0.00000  Uiso   1.00
C555   C     0.94123   0.32408   0.89490   0.00000  Uiso   1.00
C556   C     0.92447   0.37491   0.93677   0.00000  Uiso   1.00
C557   C     0.90441   0.47325   0.98203   0.00000  Uiso   1.00
C558   C     0.91953   0.15942   0.85561   0.00000  Uiso   1.00
C559   C     0.91611   0.13368   0.76535   0.00000  Uiso   1.00
C560   C     0.88786   0.09744   0.74797   0.00000  Uiso   1.00
C561   C     0.84662   0.03515   0.68398   0.00000  Uiso   1.00
C562   C     0.96238   0.16651   0.97699   0.00000  Uiso   1.00
C563   C     0.99499   0.14671   0.98879   0.00000  Uiso   1.00
C564   C     0.00282   0.11642   0.07361   0.00000  Uiso   1.00
C565   C     0.02812   0.06515   0.19809   0.00000  Uiso   1.00
C566   C     0.90435   0.18192   0.01955   0.00000  Uiso   1.00
C567   C     0.90924   0.25275   0.99640   0.00000  Uiso   1.00
C568   C     0.89246   0.30351   0.03832   0.00000  Uiso   1.00
C569   C     0.90048   0.36480   0.00731   0.00000  Uiso   1.00
C570   C     0.89559   0.14933   0.92601   0.00000  Uiso   1.00
C571   C     0.86734   0.11311   0.90876   0.00000  Uiso   1.00
C572   C     0.86387   0.08732   0.81850   0.00000  Uiso   1.00
C573   C     0.93844   0.15642   0.04741   0.00000  Uiso   1.00
C574   C     0.94622   0.12615   0.13222   0.00000  Uiso   1.00
C575   C     0.97883   0.10631   0.14415   0.00000  Uiso   1.00
H576   H     0.96707   0.20837   0.83510   0.00000  Uiso   1.00
H577   H     0.95976   0.33187   0.84041   0.00000  Uiso   1.00
H578   H     0.93464   0.14150   0.71088   0.00000  Uiso   1.00
H579   H     0.01351   0.15453   0.93429   0.00000  Uiso   1.00
H580   H     0.94108   0.46434   0.87732   0.00000  Uiso   1.00
H581   H     0.88812   0.06290   0.60420   0.00000  Uiso   1.00
H582   H     0.05444   0.09040   0.07532   0.00000  Uiso   1.00
H583   H     0.88571   0.17406   0.07437   0.00000  Uiso   1.00
H584   H     0.87393   0.29568   0.09281   0.00000  Uiso   1.00
H585   H     0.84882   0.10530   0.96327   0.00000  Uiso   1.00
H586   H     0.92769   0.11834   0.18669   0.00000  Uiso   1.00
H587   H     0.87142   0.43497   0.08217   0.00000  Uiso   1.00
H588   H     0.81847   0.03352   0.80905   0.00000  Uiso   1.00
H589   H     0.98478   0.06102   0.28017   0.00000  Uiso   1.00
O590   O     0.89996   0.53028   0.98753   0.00000  Uiso   1.00
O591   O     0.83049   0.00360   0.62922   0.00000  Uiso   1.00
O592   O     0.04869   0.03967   0.24731   0.00000  Uiso   1.00
N593   N     0.92631   0.44074   0.92301   0.00000  Uiso   1.00
N594   N     0.87679   0.06543   0.66766   0.00000  Uiso   1.00
N595   N     0.03228   0.09111   0.10810   0.00000  Uiso   1.00
N596   N     0.88882   0.42493   0.03324   0.00000  Uiso   1.00
N597   N     0.83931   0.04962   0.77789   0.00000  Uiso   1.00
N598   N     0.99480   0.07531   0.21833   0.00000  Uiso   1.00
C599   C     0.94843   0.70051   0.38992   0.00000  Uiso   1.00
C600   C     0.93318   0.76286   0.42599   0.00000  Uiso   1.00
C601   C     0.94123   0.82408   0.39490   0.00000  Uiso   1.00
C602   C     0.92447   0.87491   0.43677   0.00000  Uiso   1.00
C603   C     0.90441   0.97325   0.48203   0.00000  Uiso   1.00
C604   C     0.91953   0.65942   0.35561   0.00000  Uiso   1.00
C605   C     0.91611   0.63368   0.26535   0.00000  Uiso   1.00
C606   C     0.88786   0.59744   0.24797   0.00000  Uiso   1.00
C607   C     0.84662   0.53515   0.18398   0.00000  Uiso   1.00
C608   C     0.96238   0.66651   0.47699   0.00000  Uiso   1.00
C609   C     0.99499   0.64671   0.48879   0.00000  Uiso   1.00
C610   C     0.00282   0.61642   0.57361   0.00000  Uiso   1.00
C611   C     0.02812   0.56515   0.69809   0.00000  Uiso   1.00
C612   C     0.90435   0.68192   0.51955   0.00000  Uiso   1.00
C613   C     0.90924   0.75275   0.49640   0.00000  Uiso   1.00
C614   C     0.89246   0.80351   0.53832   0.00000  Uiso   1.00
C615   C     0.90048   0.86480   0.50731   0.00000  Uiso   1.00
C616   C     0.89559   0.64933   0.42601   0.00000  Uiso   1.00
C617   C     0.86734   0.61311   0.40876   0.00000  Uiso   1.00
C618   C     0.86387   0.58732   0.31850   0.00000  Uiso   1.00
C619   C     0.93844   0.65642   0.54741   0.00000  Uiso   1.00
C620   C     0.94622   0.62615   0.63222   0.00000  Uiso   1.00
C621   C     0.97883   0.60631   0.64415   0.00000  Uiso   1.00
H622   H     0.96707   0.70837   0.33510   0.00000  Uiso   1.00
H623   H     0.95976   0.83187   0.34041   0.00000  Uiso   1.00
H624   H     0.93464   0.64150   0.21088   0.00000  Uiso   1.00
H625   H     0.01351   0.65453   0.43429   0.00000  Uiso   1.00
H626   H     0.94108   0.96434   0.37732   0.00000  Uiso   1.00
H627   H     0.88812   0.56290   0.10420   0.00000  Uiso   1.00
H628   H     0.05444   0.59040   0.57532   0.00000  Uiso   1.00
H629   H     0.88571   0.67406   0.57437   0.00000  Uiso   1.00
H630   H     0.87393   0.79568   0.59281   0.00000  Uiso   1.00
H631   H     0.84882   0.60530   0.46327   0.00000  Uiso   1.00
H632   H     0.92769   0.61834   0.68669   0.00000  Uiso   1.00
H633   H     0.87142   0.93497   0.58217   0.00000  Uiso   1.00
H634   H     0.81847   0.53352   0.30905   0.00000  Uiso   1.00
H635   H     0.98478   0.56102   0.78017   0.00000  Uiso   1.00
O636   O     0.89996   0.03028   0.48753   0.00000  Uiso   1.00
O637   O     0.83049   0.50360   0.12922   0.00000  Uiso   1.00
O638   O     0.04869   0.53967   0.74731   0.00000  Uiso   1.00
N639   N     0.92631   0.94074   0.42301   0.00000  Uiso   1.00
N640   N     0.87679   0.56543   0.16766   0.00000  Uiso   1.00
N641   N     0.03228   0.59111   0.60810   0.00000  Uiso   1.00
N642   N     0.88882   0.92493   0.53324   0.00000  Uiso   1.00
N643   N     0.83931   0.54962   0.27789   0.00000  Uiso   1.00
N644   N     0.99480   0.57531   0.71833   0.00000  Uiso   1.00
C645   C     0.44843   0.20051   0.38992   0.00000  Uiso   1.00
C646   C     0.43318   0.26286   0.42599   0.00000  Uiso   1.00
C647   C     0.44123   0.32408   0.39490   0.00000  Uiso   1.00
C648   C     0.42447   0.37491   0.43677   0.00000  Uiso   1.00
C649   C     0.40441   0.47325   0.48203   0.00000  Uiso   1.00
C650   C     0.41953   0.15942   0.35561   0.00000  Uiso   1.00
C651   C     0.41611   0.13368   0.26535   0.00000  Uiso   1.00
C652   C     0.38786   0.09744   0.24797   0.00000  Uiso   1.00
C653   C     0.34662   0.03515   0.18398   0.00000  Uiso   1.00
C654   C     0.46238   0.16651   0.47699   0.00000  Uiso   1.00
C655   C     0.49499   0.14671   0.48879   0.00000  Uiso   1.00
C656   C     0.50282   0.11642   0.57361   0.00000  Uiso   1.00
C657   C     0.52812   0.06515   0.69809   0.00000  Uiso   1.00
C658   C     0.40435   0.18192   0.51955   0.00000  Uiso   1.00
C659   C     0.40924   0.25275   0.49640   0.00000  Uiso   1.00
C660   C     0.39246   0.30351   0.53832   0.00000  Uiso   1.00
C661   C     0.40048   0.36480   0.50731   0.00000  Uiso   1.00
C662   C     0.39559   0.14933   0.42601   0.00000  Uiso   1.00
C663   C     0.36734   0.11311   0.40876   0.00000  Uiso   1.00
C664   C     0.36387   0.08732   0.31850   0.00000  Uiso   1.00
C665   C     0.43844   0.15642   0.54741   0.00000  Uiso   1.00
C666   C     0.44622   0.12615   0.63222   0.00000  Uiso   1.00
C667   C     0.47883   0.10631   0.64415   0.00000  Uiso   1.00
H668   H     0.46707   0.20837   0.33510   0.00000  Uiso   1.00
H669   H     0.45976   0.33187   0.34041   0.00000  Uiso   1.00
H670   H     0.43464   0.14150   0.21088   0.00000  Uiso   1.00
H671   H     0.51351   0.15453   0.43429   0.00000  Uiso   1.00
H672   H     0.44108   0.46434   0.37732   0.00000  Uiso   1.00
H673   H     0.38812   0.06290   0.10420   0.00000  Uiso   1.00
H674   H     0.55444   0.09040   0.57532   0.00000  Uiso   1.00
H675   H     0.38571   0.17406   0.57437   0.00000  Uiso   1.00
H676   H     0.37393   0.29568   0.59281   0.00000  Uiso   1.00
H677   H     0.34882   0.10530   0.46327   0.00000  Uiso   1.00
H678   H     0.42769   0.11834   0.68669   0.00000  Uiso   1.00
H679   H     0.37142   0.43497   0.58217   0.00000  Uiso   1.00
H680   H     0.31847   0.03352   0.30905   0.00000  Uiso   1.00
H681   H     0.48478   0.06102   0.78017   0.00000  Uiso   1.00
O682   O     0.39996   0.53028   0.48753   0.00000  Uiso   1.00
O683   O     0.33049   0.00360   0.12922   0.00000  Uiso   1.00
O684   O     0.54869   0.03967   0.74731   0.00000  Uiso   1.00
N685   N     0.42631   0.44074   0.42301   0.00000  Uiso   1.00
N686   N     0.37679   0.06543   0.16766   0.00000  Uiso   1.00
N687   N     0.53228   0.09111   0.60810   0.00000  Uiso   1.00
N688   N     0.38882   0.42493   0.53324   0.00000  Uiso   1.00
N689   N     0.33931   0.04962   0.27789   0.00000  Uiso   1.00
N690   N     0.49480   0.07531   0.71833   0.00000  Uiso   1.00
C691   C     0.44843   0.70051   0.88992   0.00000  Uiso   1.00
C692   C     0.43318   0.76286   0.92599   0.00000  Uiso   1.00
C693   C     0.44123   0.82408   0.89490   0.00000  Uiso   1.00
C694   C     0.42447   0.87491   0.93677   0.00000  Uiso   1.00
C695   C     0.40441   0.97325   0.98203   0.00000  Uiso   1.00
C696   C     0.41953   0.65942   0.85561   0.00000  Uiso   1.00
C697   C     0.41611   0.63368   0.76535   0.00000  Uiso   1.00
C698   C     0.38786   0.59744   0.74797   0.00000  Uiso   1.00
C699   C     0.34662   0.53515   0.68398   0.00000  Uiso   1.00
C700   C     0.46238   0.66651   0.97699   0.00000  Uiso   1.00
C701   C     0.49499   0.64671   0.98879   0.00000  Uiso   1.00
C702   C     0.50282   0.61642   0.07361   0.00000  Uiso   1.00
C703   C     0.52812   0.56515   0.19809   0.00000  Uiso   1.00
C704   C     0.40435   0.68192   0.01955   0.00000  Uiso   1.00
C705   C     0.40924   0.75275   0.99640   0.00000  Uiso   1.00
C706   C     0.39246   0.80351   0.03832   0.00000  Uiso   1.00
C707   C     0.40048   0.86480   0.00731   0.00000  Uiso   1.00
C708   C     0.39559   0.64933   0.92601   0.00000  Uiso   1.00
C709   C     0.36734   0.61311   0.90876   0.00000  Uiso   1.00
C710   C     0.36387   0.58732   0.81850   0.00000  Uiso   1.00
C711   C     0.43844   0.65642   0.04741   0.00000  Uiso   1.00
C712   C     0.44622   0.62615   0.13222   0.00000  Uiso   1.00
C713   C     0.47883   0.60631   0.14415   0.00000  Uiso   1.00
H714   H     0.46707   0.70837   0.83510   0.00000  Uiso   1.00
H715   H     0.45976   0.83187   0.84041   0.00000  Uiso   1.00
H716   H     0.43464   0.64150   0.71088   0.00000  Uiso   1.00
H717   H     0.51351   0.65453   0.93429   0.00000  Uiso   1.00
H718   H     0.44108   0.96434   0.87732   0.00000  Uiso   1.00
H719   H     0.38812   0.56290   0.60420   0.00000  Uiso   1.00
H720   H     0.55444   0.59040   0.07532   0.00000  Uiso   1.00
H721   H     0.38571   0.67406   0.07437   0.00000  Uiso   1.00
H722   H     0.37393   0.79568   0.09281   0.00000  Uiso   1.00
H723   H     0.34882   0.60530   0.96327   0.00000  Uiso   1.00
H724   H     0.42769   0.61834   0.18669   0.00000  Uiso   1.00
H725   H     0.37142   0.93497   0.08217   0.00000  Uiso   1.00
H726   H     0.31847   0.53352   0.80905   0.00000  Uiso   1.00
H727   H     0.48478   0.56102   0.28017   0.00000  Uiso   1.00
O728   O     0.39996   0.03028   0.98753   0.00000  Uiso   1.00
O729   O     0.33049   0.50360   0.62922   0.00000  Uiso   1.00
O730   O     0.54869   0.53967   0.24731   0.00000  Uiso   1.00
N731   N     0.42631   0.94074   0.92301   0.00000  Uiso   1.00
N732   N     0.37679   0.56543   0.66766   0.00000  Uiso   1.00
N733   N     0.53228   0.59111   0.10810   0.00000  Uiso   1.00
N734   N     0.38882   0.92493   0.03324   0.00000  Uiso   1.00
N735   N     0.33931   0.54962   0.77789   0.00000  Uiso   1.00
N736   N     0.49480   0.57531   0.21833   0.00000  Uiso   1.00
