data_job_04999
_audit_creation_date              2018-12-19
_audit_creation_method            'Materials Studio'
_symmetry_space_group_name_H-M    'P1'
_symmetry_Int_Tables_number       1
_symmetry_cell_setting            triclinic
loop_
_symmetry_equiv_pos_as_xyz
  x,y,z
_cell_length_a                    23.5252
_cell_length_b                    23.5252
_cell_length_c                    17.4812
_cell_angle_alpha                 90.0000
_cell_angle_beta                  90.0000
_cell_angle_gamma                 90.0000
loop_
_atom_site_label
_atom_site_type_symbol
_atom_site_fract_x
_atom_site_fract_y
_atom_site_fract_z
_atom_site_U_iso_or_equiv
_atom_site_adp_type
_atom_site_occupancy
C1     C     0.19911   0.49489   0.17345   0.00000  Uiso   1.00
C2     C     0.18853   0.51199   0.09052   0.00000  Uiso   1.00
C3     C     0.13727   0.50713   0.05179   0.00000  Uiso   1.00
C4     C     0.13630   0.52512   0.97616   0.00000  Uiso   1.00
C5     C     0.11248   0.54829   0.85279   0.00000  Uiso   1.00
C6     C     0.24825   0.45263   0.17165   0.00000  Uiso   1.00
C7     C     0.24721   0.39787   0.20114   0.00000  Uiso   1.00
C8     C     0.29652   0.36590   0.19382   0.00000  Uiso   1.00
C9     C     0.36544   0.29694   0.19645   0.00000  Uiso   1.00
C10    C     0.22185   0.54786   0.21333   0.00000  Uiso   1.00
C11    C     0.19862   0.57315   0.27788   0.00000  Uiso   1.00
C12    C     0.22571   0.62135   0.30566   0.00000  Uiso   1.00
C13    C     0.25364   0.70024   0.37301   0.00000  Uiso   1.00
C14    C     0.28855   0.53549   0.10802   0.00000  Uiso   1.00
C15    C     0.23711   0.53404   0.05498   0.00000  Uiso   1.00
C16    C     0.23622   0.55205   0.97940   0.00000  Uiso   1.00
C17    C     0.18496   0.54722   0.94056   0.00000  Uiso   1.00
C18    C     0.29683   0.47469   0.13611   0.00000  Uiso   1.00
C19    C     0.34616   0.44280   0.12875   0.00000  Uiso   1.00
C20    C     0.34519   0.38800   0.15821   0.00000  Uiso   1.00
C21    C     0.27043   0.56992   0.17779   0.00000  Uiso   1.00
C22    C     0.29757   0.61808   0.20548   0.00000  Uiso   1.00
C23    C     0.27438   0.64345   0.27006   0.00000  Uiso   1.00
H24    H     0.16130   0.47771   0.20112   0.00000  Uiso   1.00
H25    H     0.09968   0.49005   0.07931   0.00000  Uiso   1.00
H26    H     0.20961   0.38081   0.22864   0.00000  Uiso   1.00
H27    H     0.16103   0.55607   0.30537   0.00000  Uiso   1.00
H28    H     0.05280   0.51344   0.92858   0.00000  Uiso   1.00
H29    H     0.28460   0.28311   0.24349   0.00000  Uiso   1.00
H30    H     0.18215   0.65268   0.40527   0.00000  Uiso   1.00
H31    H     0.32637   0.55266   0.08035   0.00000  Uiso   1.00
H32    H     0.27382   0.56912   0.95191   0.00000  Uiso   1.00
H33    H     0.38374   0.45988   0.10125   0.00000  Uiso   1.00
H34    H     0.33516   0.63514   0.17797   0.00000  Uiso   1.00
H35    H     0.19413   0.57761   0.82517   0.00000  Uiso   1.00
H36    H     0.42593   0.34728   0.14009   0.00000  Uiso   1.00
H37    H     0.32348   0.71685   0.30187   0.00000  Uiso   1.00
O38    O     0.08592   0.55498   0.79455   0.00000  Uiso   1.00
O39    O     0.39003   0.25281   0.20772   0.00000  Uiso   1.00
O40    O     0.25562   0.73767   0.41997   0.00000  Uiso   1.00
N41    N     0.09327   0.52629   0.92187   0.00000  Uiso   1.00
N42    N     0.30999   0.31095   0.21628   0.00000  Uiso   1.00
N43    N     0.21422   0.65646   0.36755   0.00000  Uiso   1.00
N44    N     0.16932   0.56082   0.86623   0.00000  Uiso   1.00
N45    N     0.38604   0.34548   0.16064   0.00000  Uiso   1.00
N46    N     0.29027   0.69099   0.31191   0.00000  Uiso   1.00
C47    C     0.69911   0.99489   0.67345   0.00000  Uiso   1.00
C48    C     0.68853   0.01199   0.59052   0.00000  Uiso   1.00
C49    C     0.63727   0.00713   0.55179   0.00000  Uiso   1.00
C50    C     0.63630   0.02512   0.47616   0.00000  Uiso   1.00
C51    C     0.61248   0.04829   0.35279   0.00000  Uiso   1.00
C52    C     0.74825   0.95263   0.67165   0.00000  Uiso   1.00
C53    C     0.74721   0.89787   0.70114   0.00000  Uiso   1.00
C54    C     0.79652   0.86590   0.69382   0.00000  Uiso   1.00
C55    C     0.86544   0.79694   0.69645   0.00000  Uiso   1.00
C56    C     0.72185   0.04786   0.71333   0.00000  Uiso   1.00
C57    C     0.69862   0.07315   0.77788   0.00000  Uiso   1.00
C58    C     0.72571   0.12135   0.80566   0.00000  Uiso   1.00
C59    C     0.75364   0.20024   0.87301   0.00000  Uiso   1.00
C60    C     0.78855   0.03549   0.60802   0.00000  Uiso   1.00
C61    C     0.73711   0.03404   0.55498   0.00000  Uiso   1.00
C62    C     0.73622   0.05205   0.47940   0.00000  Uiso   1.00
C63    C     0.68496   0.04722   0.44056   0.00000  Uiso   1.00
C64    C     0.79683   0.97469   0.63611   0.00000  Uiso   1.00
C65    C     0.84616   0.94280   0.62875   0.00000  Uiso   1.00
C66    C     0.84519   0.88800   0.65821   0.00000  Uiso   1.00
C67    C     0.77043   0.06992   0.67779   0.00000  Uiso   1.00
C68    C     0.79757   0.11808   0.70548   0.00000  Uiso   1.00
C69    C     0.77438   0.14345   0.77006   0.00000  Uiso   1.00
H70    H     0.66130   0.97771   0.70112   0.00000  Uiso   1.00
H71    H     0.59968   0.99005   0.57931   0.00000  Uiso   1.00
H72    H     0.70961   0.88081   0.72864   0.00000  Uiso   1.00
H73    H     0.66103   0.05607   0.80537   0.00000  Uiso   1.00
H74    H     0.55280   0.01344   0.42858   0.00000  Uiso   1.00
H75    H     0.78460   0.78311   0.74349   0.00000  Uiso   1.00
H76    H     0.68215   0.15268   0.90527   0.00000  Uiso   1.00
H77    H     0.82637   0.05266   0.58035   0.00000  Uiso   1.00
H78    H     0.77382   0.06912   0.45191   0.00000  Uiso   1.00
H79    H     0.88374   0.95988   0.60125   0.00000  Uiso   1.00
H80    H     0.83516   0.13514   0.67797   0.00000  Uiso   1.00
H81    H     0.69413   0.07761   0.32517   0.00000  Uiso   1.00
H82    H     0.92593   0.84728   0.64009   0.00000  Uiso   1.00
H83    H     0.82348   0.21685   0.80187   0.00000  Uiso   1.00
O84    O     0.58592   0.05498   0.29455   0.00000  Uiso   1.00
O85    O     0.89003   0.75281   0.70772   0.00000  Uiso   1.00
O86    O     0.75562   0.23767   0.91997   0.00000  Uiso   1.00
N87    N     0.59327   0.02629   0.42187   0.00000  Uiso   1.00
N88    N     0.80999   0.81095   0.71628   0.00000  Uiso   1.00
N89    N     0.71422   0.15646   0.86755   0.00000  Uiso   1.00
N90    N     0.66932   0.06082   0.36623   0.00000  Uiso   1.00
N91    N     0.88604   0.84548   0.66064   0.00000  Uiso   1.00
N92    N     0.79027   0.19099   0.81191   0.00000  Uiso   1.00
C93    C     0.30089   0.00511   0.67345   0.00000  Uiso   1.00
C94    C     0.31147   0.98801   0.59052   0.00000  Uiso   1.00
C95    C     0.36273   0.99287   0.55179   0.00000  Uiso   1.00
C96    C     0.36370   0.97488   0.47616   0.00000  Uiso   1.00
C97    C     0.38752   0.95171   0.35279   0.00000  Uiso   1.00
C98    C     0.25175   0.04737   0.67165   0.00000  Uiso   1.00
C99    C     0.25279   0.10213   0.70114   0.00000  Uiso   1.00
C100   C     0.20348   0.13410   0.69382   0.00000  Uiso   1.00
C101   C     0.13456   0.20306   0.69645   0.00000  Uiso   1.00
C102   C     0.27815   0.95214   0.71333   0.00000  Uiso   1.00
C103   C     0.30138   0.92685   0.77788   0.00000  Uiso   1.00
C104   C     0.27429   0.87865   0.80566   0.00000  Uiso   1.00
C105   C     0.24636   0.79976   0.87301   0.00000  Uiso   1.00
C106   C     0.21145   0.96451   0.60802   0.00000  Uiso   1.00
C107   C     0.26289   0.96596   0.55498   0.00000  Uiso   1.00
C108   C     0.26378   0.94795   0.47940   0.00000  Uiso   1.00
C109   C     0.31504   0.95278   0.44056   0.00000  Uiso   1.00
C110   C     0.20317   0.02531   0.63611   0.00000  Uiso   1.00
C111   C     0.15384   0.05720   0.62875   0.00000  Uiso   1.00
C112   C     0.15481   0.11200   0.65821   0.00000  Uiso   1.00
C113   C     0.22957   0.93008   0.67779   0.00000  Uiso   1.00
C114   C     0.20243   0.88192   0.70548   0.00000  Uiso   1.00
C115   C     0.22562   0.85655   0.77006   0.00000  Uiso   1.00
H116   H     0.33870   0.02229   0.70112   0.00000  Uiso   1.00
H117   H     0.40032   0.00995   0.57931   0.00000  Uiso   1.00
H118   H     0.29039   0.11919   0.72864   0.00000  Uiso   1.00
H119   H     0.33897   0.94393   0.80537   0.00000  Uiso   1.00
H120   H     0.44720   0.98656   0.42858   0.00000  Uiso   1.00
H121   H     0.21540   0.21689   0.74349   0.00000  Uiso   1.00
H122   H     0.31785   0.84732   0.90527   0.00000  Uiso   1.00
H123   H     0.17363   0.94734   0.58035   0.00000  Uiso   1.00
H124   H     0.22618   0.93088   0.45191   0.00000  Uiso   1.00
H125   H     0.11626   0.04012   0.60125   0.00000  Uiso   1.00
H126   H     0.16484   0.86486   0.67797   0.00000  Uiso   1.00
H127   H     0.30587   0.92239   0.32517   0.00000  Uiso   1.00
H128   H     0.07407   0.15272   0.64009   0.00000  Uiso   1.00
H129   H     0.17652   0.78315   0.80187   0.00000  Uiso   1.00
O130   O     0.41408   0.94502   0.29455   0.00000  Uiso   1.00
O131   O     0.10997   0.24719   0.70772   0.00000  Uiso   1.00
O132   O     0.24438   0.76233   0.91997   0.00000  Uiso   1.00
N133   N     0.40673   0.97371   0.42187   0.00000  Uiso   1.00
N134   N     0.19001   0.18905   0.71628   0.00000  Uiso   1.00
N135   N     0.28578   0.84354   0.86755   0.00000  Uiso   1.00
N136   N     0.33068   0.93918   0.36623   0.00000  Uiso   1.00
N137   N     0.11396   0.15452   0.66064   0.00000  Uiso   1.00
N138   N     0.20973   0.80901   0.81191   0.00000  Uiso   1.00
C139   C     0.80089   0.50511   0.17345   0.00000  Uiso   1.00
C140   C     0.81147   0.48801   0.09052   0.00000  Uiso   1.00
C141   C     0.86273   0.49287   0.05179   0.00000  Uiso   1.00
C142   C     0.86370   0.47488   0.97616   0.00000  Uiso   1.00
C143   C     0.88752   0.45171   0.85279   0.00000  Uiso   1.00
C144   C     0.75175   0.54737   0.17165   0.00000  Uiso   1.00
C145   C     0.75279   0.60213   0.20114   0.00000  Uiso   1.00
C146   C     0.70348   0.63410   0.19382   0.00000  Uiso   1.00
C147   C     0.63456   0.70306   0.19645   0.00000  Uiso   1.00
C148   C     0.77815   0.45214   0.21333   0.00000  Uiso   1.00
C149   C     0.80138   0.42685   0.27788   0.00000  Uiso   1.00
C150   C     0.77429   0.37865   0.30566   0.00000  Uiso   1.00
C151   C     0.74636   0.29976   0.37301   0.00000  Uiso   1.00
C152   C     0.71145   0.46451   0.10802   0.00000  Uiso   1.00
C153   C     0.76289   0.46596   0.05498   0.00000  Uiso   1.00
C154   C     0.76378   0.44795   0.97940   0.00000  Uiso   1.00
C155   C     0.81504   0.45278   0.94056   0.00000  Uiso   1.00
C156   C     0.70317   0.52531   0.13611   0.00000  Uiso   1.00
C157   C     0.65384   0.55720   0.12875   0.00000  Uiso   1.00
C158   C     0.65481   0.61200   0.15821   0.00000  Uiso   1.00
C159   C     0.72957   0.43008   0.17779   0.00000  Uiso   1.00
C160   C     0.70243   0.38192   0.20548   0.00000  Uiso   1.00
C161   C     0.72562   0.35655   0.27006   0.00000  Uiso   1.00
H162   H     0.83870   0.52229   0.20112   0.00000  Uiso   1.00
H163   H     0.90032   0.50995   0.07931   0.00000  Uiso   1.00
H164   H     0.79039   0.61919   0.22864   0.00000  Uiso   1.00
H165   H     0.83897   0.44393   0.30537   0.00000  Uiso   1.00
H166   H     0.94720   0.48656   0.92858   0.00000  Uiso   1.00
H167   H     0.71540   0.71689   0.24349   0.00000  Uiso   1.00
H168   H     0.81785   0.34732   0.40527   0.00000  Uiso   1.00
H169   H     0.67363   0.44734   0.08035   0.00000  Uiso   1.00
H170   H     0.72618   0.43088   0.95191   0.00000  Uiso   1.00
H171   H     0.61626   0.54012   0.10125   0.00000  Uiso   1.00
H172   H     0.66484   0.36486   0.17797   0.00000  Uiso   1.00
H173   H     0.80587   0.42239   0.82517   0.00000  Uiso   1.00
H174   H     0.57407   0.65272   0.14009   0.00000  Uiso   1.00
H175   H     0.67652   0.28315   0.30187   0.00000  Uiso   1.00
O176   O     0.91408   0.44502   0.79455   0.00000  Uiso   1.00
O177   O     0.60997   0.74719   0.20772   0.00000  Uiso   1.00
O178   O     0.74438   0.26233   0.41997   0.00000  Uiso   1.00
N179   N     0.90673   0.47371   0.92187   0.00000  Uiso   1.00
N180   N     0.69001   0.68905   0.21628   0.00000  Uiso   1.00
N181   N     0.78578   0.34354   0.36755   0.00000  Uiso   1.00
N182   N     0.83068   0.43918   0.86623   0.00000  Uiso   1.00
N183   N     0.61396   0.65452   0.16064   0.00000  Uiso   1.00
N184   N     0.70973   0.30901   0.31191   0.00000  Uiso   1.00
C185   C     0.50511   0.69911   0.42345   0.00000  Uiso   1.00
C186   C     0.48801   0.68853   0.34052   0.00000  Uiso   1.00
C187   C     0.49287   0.63727   0.30179   0.00000  Uiso   1.00
C188   C     0.47488   0.63630   0.22616   0.00000  Uiso   1.00
C189   C     0.45171   0.61248   0.10279   0.00000  Uiso   1.00
C190   C     0.54737   0.74825   0.42165   0.00000  Uiso   1.00
C191   C     0.60213   0.74721   0.45114   0.00000  Uiso   1.00
C192   C     0.63410   0.79652   0.44382   0.00000  Uiso   1.00
C193   C     0.70306   0.86544   0.44645   0.00000  Uiso   1.00
C194   C     0.45214   0.72185   0.46333   0.00000  Uiso   1.00
C195   C     0.42685   0.69862   0.52788   0.00000  Uiso   1.00
C196   C     0.37865   0.72571   0.55566   0.00000  Uiso   1.00
C197   C     0.29976   0.75364   0.62301   0.00000  Uiso   1.00
C198   C     0.46451   0.78855   0.35802   0.00000  Uiso   1.00
C199   C     0.46596   0.73711   0.30498   0.00000  Uiso   1.00
C200   C     0.44795   0.73622   0.22940   0.00000  Uiso   1.00
C201   C     0.45278   0.68496   0.19056   0.00000  Uiso   1.00
C202   C     0.52531   0.79683   0.38611   0.00000  Uiso   1.00
C203   C     0.55720   0.84616   0.37875   0.00000  Uiso   1.00
C204   C     0.61200   0.84519   0.40821   0.00000  Uiso   1.00
C205   C     0.43008   0.77043   0.42779   0.00000  Uiso   1.00
C206   C     0.38192   0.79757   0.45548   0.00000  Uiso   1.00
C207   C     0.35655   0.77438   0.52006   0.00000  Uiso   1.00
H208   H     0.52229   0.66130   0.45112   0.00000  Uiso   1.00
H209   H     0.50995   0.59968   0.32931   0.00000  Uiso   1.00
H210   H     0.61919   0.70961   0.47864   0.00000  Uiso   1.00
H211   H     0.44393   0.66103   0.55537   0.00000  Uiso   1.00
H212   H     0.48656   0.55280   0.17858   0.00000  Uiso   1.00
H213   H     0.71689   0.78460   0.49349   0.00000  Uiso   1.00
H214   H     0.34732   0.68215   0.65527   0.00000  Uiso   1.00
H215   H     0.44734   0.82637   0.33035   0.00000  Uiso   1.00
H216   H     0.43088   0.77382   0.20191   0.00000  Uiso   1.00
H217   H     0.54012   0.88374   0.35125   0.00000  Uiso   1.00
H218   H     0.36486   0.83516   0.42797   0.00000  Uiso   1.00
H219   H     0.42239   0.69413   0.07517   0.00000  Uiso   1.00
H220   H     0.65272   0.92593   0.39009   0.00000  Uiso   1.00
H221   H     0.28315   0.82348   0.55187   0.00000  Uiso   1.00
O222   O     0.44502   0.58592   0.04455   0.00000  Uiso   1.00
O223   O     0.74719   0.89003   0.45772   0.00000  Uiso   1.00
O224   O     0.26233   0.75562   0.66997   0.00000  Uiso   1.00
N225   N     0.47371   0.59327   0.17187   0.00000  Uiso   1.00
N226   N     0.68905   0.80999   0.46628   0.00000  Uiso   1.00
N227   N     0.34354   0.71422   0.61755   0.00000  Uiso   1.00
N228   N     0.43918   0.66932   0.11623   0.00000  Uiso   1.00
N229   N     0.65452   0.88604   0.41064   0.00000  Uiso   1.00
N230   N     0.30901   0.79027   0.56191   0.00000  Uiso   1.00
C231   C     0.00511   0.19911   0.92345   0.00000  Uiso   1.00
C232   C     0.98801   0.18853   0.84052   0.00000  Uiso   1.00
C233   C     0.99287   0.13727   0.80179   0.00000  Uiso   1.00
C234   C     0.97488   0.13630   0.72616   0.00000  Uiso   1.00
C235   C     0.95171   0.11248   0.60279   0.00000  Uiso   1.00
C236   C     0.04737   0.24825   0.92165   0.00000  Uiso   1.00
C237   C     0.10213   0.24721   0.95114   0.00000  Uiso   1.00
C238   C     0.13410   0.29652   0.94382   0.00000  Uiso   1.00
C239   C     0.20306   0.36544   0.94645   0.00000  Uiso   1.00
C240   C     0.95214   0.22185   0.96333   0.00000  Uiso   1.00
C241   C     0.92685   0.19862   0.02788   0.00000  Uiso   1.00
C242   C     0.87865   0.22571   0.05566   0.00000  Uiso   1.00
C243   C     0.79976   0.25364   0.12301   0.00000  Uiso   1.00
C244   C     0.96451   0.28855   0.85802   0.00000  Uiso   1.00
C245   C     0.96596   0.23711   0.80498   0.00000  Uiso   1.00
C246   C     0.94795   0.23622   0.72940   0.00000  Uiso   1.00
C247   C     0.95278   0.18496   0.69056   0.00000  Uiso   1.00
C248   C     0.02531   0.29683   0.88611   0.00000  Uiso   1.00
C249   C     0.05720   0.34616   0.87875   0.00000  Uiso   1.00
C250   C     0.11200   0.34519   0.90821   0.00000  Uiso   1.00
C251   C     0.93008   0.27043   0.92779   0.00000  Uiso   1.00
C252   C     0.88192   0.29757   0.95548   0.00000  Uiso   1.00
C253   C     0.85655   0.27438   0.02006   0.00000  Uiso   1.00
H254   H     0.02229   0.16130   0.95112   0.00000  Uiso   1.00
H255   H     0.00995   0.09968   0.82931   0.00000  Uiso   1.00
H256   H     0.11919   0.20961   0.97864   0.00000  Uiso   1.00
H257   H     0.94393   0.16103   0.05537   0.00000  Uiso   1.00
H258   H     0.98656   0.05280   0.67858   0.00000  Uiso   1.00
H259   H     0.21689   0.28460   0.99349   0.00000  Uiso   1.00
H260   H     0.84732   0.18215   0.15527   0.00000  Uiso   1.00
H261   H     0.94734   0.32637   0.83035   0.00000  Uiso   1.00
H262   H     0.93088   0.27382   0.70191   0.00000  Uiso   1.00
H263   H     0.04012   0.38374   0.85125   0.00000  Uiso   1.00
H264   H     0.86486   0.33516   0.92797   0.00000  Uiso   1.00
H265   H     0.92239   0.19413   0.57517   0.00000  Uiso   1.00
H266   H     0.15272   0.42593   0.89009   0.00000  Uiso   1.00
H267   H     0.78315   0.32348   0.05187   0.00000  Uiso   1.00
O268   O     0.94502   0.08592   0.54455   0.00000  Uiso   1.00
O269   O     0.24719   0.39003   0.95772   0.00000  Uiso   1.00
O270   O     0.76233   0.25562   0.16997   0.00000  Uiso   1.00
N271   N     0.97371   0.09327   0.67187   0.00000  Uiso   1.00
N272   N     0.18905   0.30999   0.96628   0.00000  Uiso   1.00
N273   N     0.84354   0.21422   0.11755   0.00000  Uiso   1.00
N274   N     0.93918   0.16932   0.61623   0.00000  Uiso   1.00
N275   N     0.15452   0.38604   0.91064   0.00000  Uiso   1.00
N276   N     0.80901   0.29027   0.06191   0.00000  Uiso   1.00
C277   C     0.99489   0.80089   0.92345   0.00000  Uiso   1.00
C278   C     0.01199   0.81147   0.84052   0.00000  Uiso   1.00
C279   C     0.00713   0.86273   0.80179   0.00000  Uiso   1.00
C280   C     0.02512   0.86370   0.72616   0.00000  Uiso   1.00
C281   C     0.04829   0.88752   0.60279   0.00000  Uiso   1.00
C282   C     0.95263   0.75175   0.92165   0.00000  Uiso   1.00
C283   C     0.89787   0.75279   0.95114   0.00000  Uiso   1.00
C284   C     0.86590   0.70348   0.94382   0.00000  Uiso   1.00
C285   C     0.79694   0.63456   0.94645   0.00000  Uiso   1.00
C286   C     0.04786   0.77815   0.96333   0.00000  Uiso   1.00
C287   C     0.07315   0.80138   0.02788   0.00000  Uiso   1.00
C288   C     0.12135   0.77429   0.05566   0.00000  Uiso   1.00
C289   C     0.20024   0.74636   0.12301   0.00000  Uiso   1.00
C290   C     0.03549   0.71145   0.85802   0.00000  Uiso   1.00
C291   C     0.03404   0.76289   0.80498   0.00000  Uiso   1.00
C292   C     0.05205   0.76378   0.72940   0.00000  Uiso   1.00
C293   C     0.04722   0.81504   0.69056   0.00000  Uiso   1.00
C294   C     0.97469   0.70317   0.88611   0.00000  Uiso   1.00
C295   C     0.94280   0.65384   0.87875   0.00000  Uiso   1.00
C296   C     0.88800   0.65481   0.90821   0.00000  Uiso   1.00
C297   C     0.06992   0.72957   0.92779   0.00000  Uiso   1.00
C298   C     0.11808   0.70243   0.95548   0.00000  Uiso   1.00
C299   C     0.14345   0.72562   0.02006   0.00000  Uiso   1.00
H300   H     0.97771   0.83870   0.95112   0.00000  Uiso   1.00
H301   H     0.99005   0.90032   0.82931   0.00000  Uiso   1.00
H302   H     0.88081   0.79039   0.97864   0.00000  Uiso   1.00
H303   H     0.05607   0.83897   0.05537   0.00000  Uiso   1.00
H304   H     0.01344   0.94720   0.67858   0.00000  Uiso   1.00
H305   H     0.78311   0.71540   0.99349   0.00000  Uiso   1.00
H306   H     0.15268   0.81785   0.15527   0.00000  Uiso   1.00
H307   H     0.05266   0.67363   0.83035   0.00000  Uiso   1.00
H308   H     0.06912   0.72618   0.70191   0.00000  Uiso   1.00
H309   H     0.95988   0.61626   0.85125   0.00000  Uiso   1.00
H310   H     0.13514   0.66484   0.92797   0.00000  Uiso   1.00
H311   H     0.07761   0.80587   0.57517   0.00000  Uiso   1.00
H312   H     0.84728   0.57407   0.89009   0.00000  Uiso   1.00
H313   H     0.21685   0.67652   0.05187   0.00000  Uiso   1.00
O314   O     0.05498   0.91408   0.54455   0.00000  Uiso   1.00
O315   O     0.75281   0.60997   0.95772   0.00000  Uiso   1.00
O316   O     0.23767   0.74438   0.16997   0.00000  Uiso   1.00
N317   N     0.02629   0.90673   0.67187   0.00000  Uiso   1.00
N318   N     0.81095   0.69001   0.96628   0.00000  Uiso   1.00
N319   N     0.15646   0.78578   0.11755   0.00000  Uiso   1.00
N320   N     0.06082   0.83068   0.61623   0.00000  Uiso   1.00
N321   N     0.84548   0.61396   0.91064   0.00000  Uiso   1.00
N322   N     0.19099   0.70973   0.06191   0.00000  Uiso   1.00
C323   C     0.49489   0.30089   0.42345   0.00000  Uiso   1.00
C324   C     0.51199   0.31147   0.34052   0.00000  Uiso   1.00
C325   C     0.50713   0.36273   0.30179   0.00000  Uiso   1.00
C326   C     0.52512   0.36370   0.22616   0.00000  Uiso   1.00
C327   C     0.54829   0.38752   0.10279   0.00000  Uiso   1.00
C328   C     0.45263   0.25175   0.42165   0.00000  Uiso   1.00
C329   C     0.39787   0.25279   0.45114   0.00000  Uiso   1.00
C330   C     0.36590   0.20348   0.44382   0.00000  Uiso   1.00
C331   C     0.29694   0.13456   0.44645   0.00000  Uiso   1.00
C332   C     0.54786   0.27815   0.46333   0.00000  Uiso   1.00
C333   C     0.57315   0.30138   0.52788   0.00000  Uiso   1.00
C334   C     0.62135   0.27429   0.55566   0.00000  Uiso   1.00
C335   C     0.70024   0.24636   0.62301   0.00000  Uiso   1.00
C336   C     0.53549   0.21145   0.35802   0.00000  Uiso   1.00
C337   C     0.53404   0.26289   0.30498   0.00000  Uiso   1.00
C338   C     0.55205   0.26378   0.22940   0.00000  Uiso   1.00
C339   C     0.54722   0.31504   0.19056   0.00000  Uiso   1.00
C340   C     0.47469   0.20317   0.38611   0.00000  Uiso   1.00
C341   C     0.44280   0.15384   0.37875   0.00000  Uiso   1.00
C342   C     0.38800   0.15481   0.40821   0.00000  Uiso   1.00
C343   C     0.56992   0.22957   0.42779   0.00000  Uiso   1.00
C344   C     0.61808   0.20243   0.45548   0.00000  Uiso   1.00
C345   C     0.64345   0.22562   0.52006   0.00000  Uiso   1.00
H346   H     0.47771   0.33870   0.45112   0.00000  Uiso   1.00
H347   H     0.49005   0.40032   0.32931   0.00000  Uiso   1.00
H348   H     0.38081   0.29039   0.47864   0.00000  Uiso   1.00
H349   H     0.55607   0.33897   0.55537   0.00000  Uiso   1.00
H350   H     0.51344   0.44720   0.17858   0.00000  Uiso   1.00
H351   H     0.28311   0.21540   0.49349   0.00000  Uiso   1.00
H352   H     0.65268   0.31785   0.65527   0.00000  Uiso   1.00
H353   H     0.55266   0.17363   0.33035   0.00000  Uiso   1.00
H354   H     0.56912   0.22618   0.20191   0.00000  Uiso   1.00
H355   H     0.45988   0.11626   0.35125   0.00000  Uiso   1.00
H356   H     0.63514   0.16484   0.42797   0.00000  Uiso   1.00
H357   H     0.57761   0.30587   0.07517   0.00000  Uiso   1.00
H358   H     0.34728   0.07407   0.39009   0.00000  Uiso   1.00
H359   H     0.71685   0.17652   0.55187   0.00000  Uiso   1.00
O360   O     0.55498   0.41408   0.04455   0.00000  Uiso   1.00
O361   O     0.25281   0.10997   0.45772   0.00000  Uiso   1.00
O362   O     0.73767   0.24438   0.66997   0.00000  Uiso   1.00
N363   N     0.52629   0.40673   0.17187   0.00000  Uiso   1.00
N364   N     0.31095   0.19001   0.46628   0.00000  Uiso   1.00
N365   N     0.65646   0.28578   0.61755   0.00000  Uiso   1.00
N366   N     0.56082   0.33068   0.11623   0.00000  Uiso   1.00
N367   N     0.34548   0.11396   0.41064   0.00000  Uiso   1.00
N368   N     0.69099   0.20973   0.56191   0.00000  Uiso   1.00
C369   C     0.80089   0.00511   0.07655   0.00000  Uiso   1.00
C370   C     0.81147   0.98801   0.15948   0.00000  Uiso   1.00
C371   C     0.86273   0.99287   0.19821   0.00000  Uiso   1.00
C372   C     0.86370   0.97488   0.27384   0.00000  Uiso   1.00
C373   C     0.88752   0.95171   0.39721   0.00000  Uiso   1.00
C374   C     0.75175   0.04737   0.07835   0.00000  Uiso   1.00
C375   C     0.75279   0.10213   0.04886   0.00000  Uiso   1.00
C376   C     0.70348   0.13410   0.05618   0.00000  Uiso   1.00
C377   C     0.63456   0.20306   0.05355   0.00000  Uiso   1.00
C378   C     0.77815   0.95214   0.03667   0.00000  Uiso   1.00
C379   C     0.80138   0.92685   0.97212   0.00000  Uiso   1.00
C380   C     0.77429   0.87865   0.94434   0.00000  Uiso   1.00
C381   C     0.74636   0.79976   0.87699   0.00000  Uiso   1.00
C382   C     0.71145   0.96451   0.14198   0.00000  Uiso   1.00
C383   C     0.76289   0.96596   0.19502   0.00000  Uiso   1.00
C384   C     0.76378   0.94795   0.27060   0.00000  Uiso   1.00
C385   C     0.81504   0.95278   0.30944   0.00000  Uiso   1.00
C386   C     0.70317   0.02531   0.11389   0.00000  Uiso   1.00
C387   C     0.65384   0.05720   0.12125   0.00000  Uiso   1.00
C388   C     0.65481   0.11200   0.09179   0.00000  Uiso   1.00
C389   C     0.72957   0.93008   0.07221   0.00000  Uiso   1.00
C390   C     0.70243   0.88192   0.04452   0.00000  Uiso   1.00
C391   C     0.72562   0.85655   0.97994   0.00000  Uiso   1.00
H392   H     0.83870   0.02229   0.04888   0.00000  Uiso   1.00
H393   H     0.90032   0.00995   0.17069   0.00000  Uiso   1.00
H394   H     0.79039   0.11919   0.02136   0.00000  Uiso   1.00
H395   H     0.83897   0.94393   0.94463   0.00000  Uiso   1.00
H396   H     0.94720   0.98656   0.32142   0.00000  Uiso   1.00
H397   H     0.71540   0.21689   0.00651   0.00000  Uiso   1.00
H398   H     0.81785   0.84732   0.84473   0.00000  Uiso   1.00
H399   H     0.67363   0.94734   0.16965   0.00000  Uiso   1.00
H400   H     0.72618   0.93088   0.29809   0.00000  Uiso   1.00
H401   H     0.61626   0.04012   0.14875   0.00000  Uiso   1.00
H402   H     0.66484   0.86486   0.07203   0.00000  Uiso   1.00
H403   H     0.80587   0.92239   0.42483   0.00000  Uiso   1.00
H404   H     0.57407   0.15272   0.10991   0.00000  Uiso   1.00
H405   H     0.67652   0.78315   0.94813   0.00000  Uiso   1.00
O406   O     0.91408   0.94502   0.45545   0.00000  Uiso   1.00
O407   O     0.60997   0.24719   0.04228   0.00000  Uiso   1.00
O408   O     0.74438   0.76233   0.83003   0.00000  Uiso   1.00
N409   N     0.90673   0.97371   0.32813   0.00000  Uiso   1.00
N410   N     0.69001   0.18905   0.03372   0.00000  Uiso   1.00
N411   N     0.78578   0.84354   0.88245   0.00000  Uiso   1.00
N412   N     0.83068   0.93918   0.38377   0.00000  Uiso   1.00
N413   N     0.61396   0.15452   0.08936   0.00000  Uiso   1.00
N414   N     0.70973   0.80901   0.93809   0.00000  Uiso   1.00
C415   C     0.30089   0.50511   0.57655   0.00000  Uiso   1.00
C416   C     0.31147   0.48801   0.65948   0.00000  Uiso   1.00
C417   C     0.36273   0.49287   0.69821   0.00000  Uiso   1.00
C418   C     0.36370   0.47488   0.77384   0.00000  Uiso   1.00
C419   C     0.38752   0.45171   0.89721   0.00000  Uiso   1.00
C420   C     0.25175   0.54737   0.57835   0.00000  Uiso   1.00
C421   C     0.25279   0.60213   0.54886   0.00000  Uiso   1.00
C422   C     0.20348   0.63410   0.55618   0.00000  Uiso   1.00
C423   C     0.13456   0.70306   0.55355   0.00000  Uiso   1.00
C424   C     0.27815   0.45214   0.53667   0.00000  Uiso   1.00
C425   C     0.30138   0.42685   0.47212   0.00000  Uiso   1.00
C426   C     0.27429   0.37865   0.44434   0.00000  Uiso   1.00
C427   C     0.24636   0.29976   0.37699   0.00000  Uiso   1.00
C428   C     0.21145   0.46451   0.64198   0.00000  Uiso   1.00
C429   C     0.26289   0.46596   0.69502   0.00000  Uiso   1.00
C430   C     0.26378   0.44795   0.77060   0.00000  Uiso   1.00
C431   C     0.31504   0.45278   0.80944   0.00000  Uiso   1.00
C432   C     0.20317   0.52531   0.61389   0.00000  Uiso   1.00
C433   C     0.15384   0.55720   0.62125   0.00000  Uiso   1.00
C434   C     0.15481   0.61200   0.59179   0.00000  Uiso   1.00
C435   C     0.22957   0.43008   0.57221   0.00000  Uiso   1.00
C436   C     0.20243   0.38192   0.54452   0.00000  Uiso   1.00
C437   C     0.22562   0.35655   0.47994   0.00000  Uiso   1.00
H438   H     0.33870   0.52229   0.54888   0.00000  Uiso   1.00
H439   H     0.40032   0.50995   0.67069   0.00000  Uiso   1.00
H440   H     0.29039   0.61919   0.52136   0.00000  Uiso   1.00
H441   H     0.33897   0.44393   0.44463   0.00000  Uiso   1.00
H442   H     0.44720   0.48656   0.82142   0.00000  Uiso   1.00
H443   H     0.21540   0.71689   0.50651   0.00000  Uiso   1.00
H444   H     0.31785   0.34732   0.34473   0.00000  Uiso   1.00
H445   H     0.17363   0.44734   0.66965   0.00000  Uiso   1.00
H446   H     0.22618   0.43088   0.79809   0.00000  Uiso   1.00
H447   H     0.11626   0.54012   0.64875   0.00000  Uiso   1.00
H448   H     0.16484   0.36486   0.57203   0.00000  Uiso   1.00
H449   H     0.30587   0.42239   0.92483   0.00000  Uiso   1.00
H450   H     0.07407   0.65272   0.60991   0.00000  Uiso   1.00
H451   H     0.17652   0.28315   0.44813   0.00000  Uiso   1.00
O452   O     0.41408   0.44502   0.95545   0.00000  Uiso   1.00
O453   O     0.10997   0.74719   0.54228   0.00000  Uiso   1.00
O454   O     0.24438   0.26233   0.33003   0.00000  Uiso   1.00
N455   N     0.40673   0.47371   0.82813   0.00000  Uiso   1.00
N456   N     0.19001   0.68905   0.53372   0.00000  Uiso   1.00
N457   N     0.28578   0.34354   0.38245   0.00000  Uiso   1.00
N458   N     0.33068   0.43918   0.88377   0.00000  Uiso   1.00
N459   N     0.11396   0.65452   0.58936   0.00000  Uiso   1.00
N460   N     0.20973   0.30901   0.43809   0.00000  Uiso   1.00
C461   C     0.69911   0.49489   0.57655   0.00000  Uiso   1.00
C462   C     0.68853   0.51199   0.65948   0.00000  Uiso   1.00
C463   C     0.63727   0.50713   0.69821   0.00000  Uiso   1.00
C464   C     0.63630   0.52512   0.77384   0.00000  Uiso   1.00
C465   C     0.61248   0.54829   0.89721   0.00000  Uiso   1.00
C466   C     0.74825   0.45263   0.57835   0.00000  Uiso   1.00
C467   C     0.74721   0.39787   0.54886   0.00000  Uiso   1.00
C468   C     0.79652   0.36590   0.55618   0.00000  Uiso   1.00
C469   C     0.86544   0.29694   0.55355   0.00000  Uiso   1.00
C470   C     0.72185   0.54786   0.53667   0.00000  Uiso   1.00
C471   C     0.69862   0.57315   0.47212   0.00000  Uiso   1.00
C472   C     0.72571   0.62135   0.44434   0.00000  Uiso   1.00
C473   C     0.75364   0.70024   0.37699   0.00000  Uiso   1.00
C474   C     0.78855   0.53549   0.64198   0.00000  Uiso   1.00
C475   C     0.73711   0.53404   0.69502   0.00000  Uiso   1.00
C476   C     0.73622   0.55205   0.77060   0.00000  Uiso   1.00
C477   C     0.68496   0.54722   0.80944   0.00000  Uiso   1.00
C478   C     0.79683   0.47469   0.61389   0.00000  Uiso   1.00
C479   C     0.84616   0.44280   0.62125   0.00000  Uiso   1.00
C480   C     0.84519   0.38800   0.59179   0.00000  Uiso   1.00
C481   C     0.77043   0.56992   0.57221   0.00000  Uiso   1.00
C482   C     0.79757   0.61808   0.54452   0.00000  Uiso   1.00
C483   C     0.77438   0.64345   0.47994   0.00000  Uiso   1.00
H484   H     0.66130   0.47771   0.54888   0.00000  Uiso   1.00
H485   H     0.59968   0.49005   0.67069   0.00000  Uiso   1.00
H486   H     0.70961   0.38081   0.52136   0.00000  Uiso   1.00
H487   H     0.66103   0.55607   0.44463   0.00000  Uiso   1.00
H488   H     0.55280   0.51344   0.82142   0.00000  Uiso   1.00
H489   H     0.78460   0.28311   0.50651   0.00000  Uiso   1.00
H490   H     0.68215   0.65268   0.34473   0.00000  Uiso   1.00
H491   H     0.82637   0.55266   0.66965   0.00000  Uiso   1.00
H492   H     0.77382   0.56912   0.79809   0.00000  Uiso   1.00
H493   H     0.88374   0.45988   0.64875   0.00000  Uiso   1.00
H494   H     0.83516   0.63514   0.57203   0.00000  Uiso   1.00
H495   H     0.69413   0.57761   0.92483   0.00000  Uiso   1.00
H496   H     0.92593   0.34728   0.60991   0.00000  Uiso   1.00
H497   H     0.82348   0.71685   0.44813   0.00000  Uiso   1.00
O498   O     0.58592   0.55498   0.95545   0.00000  Uiso   1.00
O499   O     0.89003   0.25281   0.54228   0.00000  Uiso   1.00
O500   O     0.75562   0.73767   0.33003   0.00000  Uiso   1.00
N501   N     0.59327   0.52629   0.82813   0.00000  Uiso   1.00
N502   N     0.80999   0.31095   0.53372   0.00000  Uiso   1.00
N503   N     0.71422   0.65646   0.38245   0.00000  Uiso   1.00
N504   N     0.66932   0.56082   0.88377   0.00000  Uiso   1.00
N505   N     0.88604   0.34548   0.58936   0.00000  Uiso   1.00
N506   N     0.79027   0.69099   0.43809   0.00000  Uiso   1.00
C507   C     0.19911   0.99489   0.07655   0.00000  Uiso   1.00
C508   C     0.18853   0.01199   0.15948   0.00000  Uiso   1.00
C509   C     0.13727   0.00713   0.19821   0.00000  Uiso   1.00
C510   C     0.13630   0.02512   0.27384   0.00000  Uiso   1.00
C511   C     0.11248   0.04829   0.39721   0.00000  Uiso   1.00
C512   C     0.24825   0.95263   0.07835   0.00000  Uiso   1.00
C513   C     0.24721   0.89787   0.04886   0.00000  Uiso   1.00
C514   C     0.29652   0.86590   0.05618   0.00000  Uiso   1.00
C515   C     0.36544   0.79694   0.05355   0.00000  Uiso   1.00
C516   C     0.22185   0.04786   0.03667   0.00000  Uiso   1.00
C517   C     0.19862   0.07315   0.97212   0.00000  Uiso   1.00
C518   C     0.22571   0.12135   0.94434   0.00000  Uiso   1.00
C519   C     0.25364   0.20024   0.87699   0.00000  Uiso   1.00
C520   C     0.28855   0.03549   0.14198   0.00000  Uiso   1.00
C521   C     0.23711   0.03404   0.19502   0.00000  Uiso   1.00
C522   C     0.23622   0.05205   0.27060   0.00000  Uiso   1.00
C523   C     0.18496   0.04722   0.30944   0.00000  Uiso   1.00
C524   C     0.29683   0.97469   0.11389   0.00000  Uiso   1.00
C525   C     0.34616   0.94280   0.12125   0.00000  Uiso   1.00
C526   C     0.34519   0.88800   0.09179   0.00000  Uiso   1.00
C527   C     0.27043   0.06992   0.07221   0.00000  Uiso   1.00
C528   C     0.29757   0.11808   0.04452   0.00000  Uiso   1.00
C529   C     0.27438   0.14345   0.97994   0.00000  Uiso   1.00
H530   H     0.16130   0.97771   0.04888   0.00000  Uiso   1.00
H531   H     0.09968   0.99005   0.17069   0.00000  Uiso   1.00
H532   H     0.20961   0.88081   0.02136   0.00000  Uiso   1.00
H533   H     0.16103   0.05607   0.94463   0.00000  Uiso   1.00
H534   H     0.05280   0.01344   0.32142   0.00000  Uiso   1.00
H535   H     0.28460   0.78311   0.00651   0.00000  Uiso   1.00
H536   H     0.18215   0.15268   0.84473   0.00000  Uiso   1.00
H537   H     0.32637   0.05266   0.16965   0.00000  Uiso   1.00
H538   H     0.27382   0.06912   0.29809   0.00000  Uiso   1.00
H539   H     0.38374   0.95988   0.14875   0.00000  Uiso   1.00
H540   H     0.33516   0.13514   0.07203   0.00000  Uiso   1.00
H541   H     0.19413   0.07761   0.42483   0.00000  Uiso   1.00
H542   H     0.42593   0.84728   0.10991   0.00000  Uiso   1.00
H543   H     0.32348   0.21685   0.94813   0.00000  Uiso   1.00
O544   O     0.08592   0.05498   0.45545   0.00000  Uiso   1.00
O545   O     0.39003   0.75281   0.04228   0.00000  Uiso   1.00
O546   O     0.25562   0.23767   0.83003   0.00000  Uiso   1.00
N547   N     0.09327   0.02629   0.32813   0.00000  Uiso   1.00
N548   N     0.30999   0.81095   0.03372   0.00000  Uiso   1.00
N549   N     0.21422   0.15646   0.88245   0.00000  Uiso   1.00
N550   N     0.16932   0.06082   0.38377   0.00000  Uiso   1.00
N551   N     0.38604   0.84548   0.08936   0.00000  Uiso   1.00
N552   N     0.29027   0.19099   0.93809   0.00000  Uiso   1.00
C553   C     0.49489   0.80089   0.82655   0.00000  Uiso   1.00
C554   C     0.51199   0.81147   0.90948   0.00000  Uiso   1.00
C555   C     0.50713   0.86273   0.94821   0.00000  Uiso   1.00
C556   C     0.52512   0.86370   0.02384   0.00000  Uiso   1.00
C557   C     0.54829   0.88752   0.14721   0.00000  Uiso   1.00
C558   C     0.45263   0.75175   0.82835   0.00000  Uiso   1.00
C559   C     0.39787   0.75279   0.79886   0.00000  Uiso   1.00
C560   C     0.36590   0.70348   0.80618   0.00000  Uiso   1.00
C561   C     0.29694   0.63456   0.80355   0.00000  Uiso   1.00
C562   C     0.54786   0.77815   0.78667   0.00000  Uiso   1.00
C563   C     0.57315   0.80138   0.72212   0.00000  Uiso   1.00
C564   C     0.62135   0.77429   0.69434   0.00000  Uiso   1.00
C565   C     0.70024   0.74636   0.62699   0.00000  Uiso   1.00
C566   C     0.53549   0.71145   0.89198   0.00000  Uiso   1.00
C567   C     0.53404   0.76289   0.94502   0.00000  Uiso   1.00
C568   C     0.55205   0.76378   0.02060   0.00000  Uiso   1.00
C569   C     0.54722   0.81504   0.05944   0.00000  Uiso   1.00
C570   C     0.47469   0.70317   0.86389   0.00000  Uiso   1.00
C571   C     0.44280   0.65384   0.87125   0.00000  Uiso   1.00
C572   C     0.38800   0.65481   0.84179   0.00000  Uiso   1.00
C573   C     0.56992   0.72957   0.82221   0.00000  Uiso   1.00
C574   C     0.61808   0.70243   0.79452   0.00000  Uiso   1.00
C575   C     0.64345   0.72562   0.72994   0.00000  Uiso   1.00
H576   H     0.47771   0.83870   0.79888   0.00000  Uiso   1.00
H577   H     0.49005   0.90032   0.92069   0.00000  Uiso   1.00
H578   H     0.38081   0.79039   0.77136   0.00000  Uiso   1.00
H579   H     0.55607   0.83897   0.69463   0.00000  Uiso   1.00
H580   H     0.51344   0.94720   0.07142   0.00000  Uiso   1.00
H581   H     0.28311   0.71540   0.75651   0.00000  Uiso   1.00
H582   H     0.65268   0.81785   0.59473   0.00000  Uiso   1.00
H583   H     0.55266   0.67363   0.91965   0.00000  Uiso   1.00
H584   H     0.56912   0.72618   0.04809   0.00000  Uiso   1.00
H585   H     0.45988   0.61626   0.89875   0.00000  Uiso   1.00
H586   H     0.63514   0.66484   0.82203   0.00000  Uiso   1.00
H587   H     0.57761   0.80587   0.17483   0.00000  Uiso   1.00
H588   H     0.34728   0.57407   0.85991   0.00000  Uiso   1.00
H589   H     0.71685   0.67652   0.69813   0.00000  Uiso   1.00
O590   O     0.55498   0.91408   0.20545   0.00000  Uiso   1.00
O591   O     0.25281   0.60997   0.79228   0.00000  Uiso   1.00
O592   O     0.73767   0.74438   0.58003   0.00000  Uiso   1.00
N593   N     0.52629   0.90673   0.07813   0.00000  Uiso   1.00
N594   N     0.31095   0.69001   0.78372   0.00000  Uiso   1.00
N595   N     0.65646   0.78578   0.63245   0.00000  Uiso   1.00
N596   N     0.56082   0.83068   0.13377   0.00000  Uiso   1.00
N597   N     0.34548   0.61396   0.83936   0.00000  Uiso   1.00
N598   N     0.69099   0.70973   0.68809   0.00000  Uiso   1.00
C599   C     0.99489   0.30089   0.32655   0.00000  Uiso   1.00
C600   C     0.01199   0.31147   0.40948   0.00000  Uiso   1.00
C601   C     0.00713   0.36273   0.44821   0.00000  Uiso   1.00
C602   C     0.02512   0.36370   0.52384   0.00000  Uiso   1.00
C603   C     0.04829   0.38752   0.64721   0.00000  Uiso   1.00
C604   C     0.95263   0.25175   0.32835   0.00000  Uiso   1.00
C605   C     0.89787   0.25279   0.29886   0.00000  Uiso   1.00
C606   C     0.86590   0.20348   0.30618   0.00000  Uiso   1.00
C607   C     0.79694   0.13456   0.30355   0.00000  Uiso   1.00
C608   C     0.04786   0.27815   0.28667   0.00000  Uiso   1.00
C609   C     0.07315   0.30138   0.22212   0.00000  Uiso   1.00
C610   C     0.12135   0.27429   0.19434   0.00000  Uiso   1.00
C611   C     0.20024   0.24636   0.12699   0.00000  Uiso   1.00
C612   C     0.03549   0.21145   0.39198   0.00000  Uiso   1.00
C613   C     0.03404   0.26289   0.44502   0.00000  Uiso   1.00
C614   C     0.05205   0.26378   0.52060   0.00000  Uiso   1.00
C615   C     0.04722   0.31504   0.55944   0.00000  Uiso   1.00
C616   C     0.97469   0.20317   0.36389   0.00000  Uiso   1.00
C617   C     0.94280   0.15384   0.37125   0.00000  Uiso   1.00
C618   C     0.88800   0.15481   0.34179   0.00000  Uiso   1.00
C619   C     0.06992   0.22957   0.32221   0.00000  Uiso   1.00
C620   C     0.11808   0.20243   0.29452   0.00000  Uiso   1.00
C621   C     0.14345   0.22562   0.22994   0.00000  Uiso   1.00
H622   H     0.97771   0.33870   0.29888   0.00000  Uiso   1.00
H623   H     0.99005   0.40032   0.42069   0.00000  Uiso   1.00
H624   H     0.88081   0.29039   0.27136   0.00000  Uiso   1.00
H625   H     0.05607   0.33897   0.19463   0.00000  Uiso   1.00
H626   H     0.01344   0.44720   0.57142   0.00000  Uiso   1.00
H627   H     0.78311   0.21540   0.25651   0.00000  Uiso   1.00
H628   H     0.15268   0.31785   0.09473   0.00000  Uiso   1.00
H629   H     0.05266   0.17363   0.41965   0.00000  Uiso   1.00
H630   H     0.06912   0.22618   0.54809   0.00000  Uiso   1.00
H631   H     0.95988   0.11626   0.39875   0.00000  Uiso   1.00
H632   H     0.13514   0.16484   0.32203   0.00000  Uiso   1.00
H633   H     0.07761   0.30587   0.67483   0.00000  Uiso   1.00
H634   H     0.84728   0.07407   0.35991   0.00000  Uiso   1.00
H635   H     0.21685   0.17652   0.19813   0.00000  Uiso   1.00
O636   O     0.05498   0.41408   0.70545   0.00000  Uiso   1.00
O637   O     0.75281   0.10997   0.29228   0.00000  Uiso   1.00
O638   O     0.23767   0.24438   0.08003   0.00000  Uiso   1.00
N639   N     0.02629   0.40673   0.57813   0.00000  Uiso   1.00
N640   N     0.81095   0.19001   0.28372   0.00000  Uiso   1.00
N641   N     0.15646   0.28578   0.13245   0.00000  Uiso   1.00
N642   N     0.06082   0.33068   0.63377   0.00000  Uiso   1.00
N643   N     0.84548   0.11396   0.33936   0.00000  Uiso   1.00
N644   N     0.19099   0.20973   0.18809   0.00000  Uiso   1.00
C645   C     0.00511   0.69911   0.32655   0.00000  Uiso   1.00
C646   C     0.98801   0.68853   0.40948   0.00000  Uiso   1.00
C647   C     0.99287   0.63727   0.44821   0.00000  Uiso   1.00
C648   C     0.97488   0.63630   0.52384   0.00000  Uiso   1.00
C649   C     0.95171   0.61248   0.64721   0.00000  Uiso   1.00
C650   C     0.04737   0.74825   0.32835   0.00000  Uiso   1.00
C651   C     0.10213   0.74721   0.29886   0.00000  Uiso   1.00
C652   C     0.13410   0.79652   0.30618   0.00000  Uiso   1.00
C653   C     0.20306   0.86544   0.30355   0.00000  Uiso   1.00
C654   C     0.95214   0.72185   0.28667   0.00000  Uiso   1.00
C655   C     0.92685   0.69862   0.22212   0.00000  Uiso   1.00
C656   C     0.87865   0.72571   0.19434   0.00000  Uiso   1.00
C657   C     0.79976   0.75364   0.12699   0.00000  Uiso   1.00
C658   C     0.96451   0.78855   0.39198   0.00000  Uiso   1.00
C659   C     0.96596   0.73711   0.44502   0.00000  Uiso   1.00
C660   C     0.94795   0.73622   0.52060   0.00000  Uiso   1.00
C661   C     0.95278   0.68496   0.55944   0.00000  Uiso   1.00
C662   C     0.02531   0.79683   0.36389   0.00000  Uiso   1.00
C663   C     0.05720   0.84616   0.37125   0.00000  Uiso   1.00
C664   C     0.11200   0.84519   0.34179   0.00000  Uiso   1.00
C665   C     0.93008   0.77043   0.32221   0.00000  Uiso   1.00
C666   C     0.88192   0.79757   0.29452   0.00000  Uiso   1.00
C667   C     0.85655   0.77438   0.22994   0.00000  Uiso   1.00
H668   H     0.02229   0.66130   0.29888   0.00000  Uiso   1.00
H669   H     0.00995   0.59968   0.42069   0.00000  Uiso   1.00
H670   H     0.11919   0.70961   0.27136   0.00000  Uiso   1.00
H671   H     0.94393   0.66103   0.19463   0.00000  Uiso   1.00
H672   H     0.98656   0.55280   0.57142   0.00000  Uiso   1.00
H673   H     0.21689   0.78460   0.25651   0.00000  Uiso   1.00
H674   H     0.84732   0.68215   0.09473   0.00000  Uiso   1.00
H675   H     0.94734   0.82637   0.41965   0.00000  Uiso   1.00
H676   H     0.93088   0.77382   0.54809   0.00000  Uiso   1.00
H677   H     0.04012   0.88374   0.39875   0.00000  Uiso   1.00
H678   H     0.86486   0.83516   0.32203   0.00000  Uiso   1.00
H679   H     0.92239   0.69413   0.67483   0.00000  Uiso   1.00
H680   H     0.15272   0.92593   0.35991   0.00000  Uiso   1.00
H681   H     0.78315   0.82348   0.19813   0.00000  Uiso   1.00
O682   O     0.94502   0.58592   0.70545   0.00000  Uiso   1.00
O683   O     0.24719   0.89003   0.29228   0.00000  Uiso   1.00
O684   O     0.76233   0.75562   0.08003   0.00000  Uiso   1.00
N685   N     0.97371   0.59327   0.57813   0.00000  Uiso   1.00
N686   N     0.18905   0.80999   0.28372   0.00000  Uiso   1.00
N687   N     0.84354   0.71422   0.13245   0.00000  Uiso   1.00
N688   N     0.93918   0.66932   0.63377   0.00000  Uiso   1.00
N689   N     0.15452   0.88604   0.33936   0.00000  Uiso   1.00
N690   N     0.80901   0.79027   0.18809   0.00000  Uiso   1.00
C691   C     0.50511   0.19911   0.82655   0.00000  Uiso   1.00
C692   C     0.48801   0.18853   0.90948   0.00000  Uiso   1.00
C693   C     0.49287   0.13727   0.94821   0.00000  Uiso   1.00
C694   C     0.47488   0.13630   0.02384   0.00000  Uiso   1.00
C695   C     0.45171   0.11248   0.14721   0.00000  Uiso   1.00
C696   C     0.54737   0.24825   0.82835   0.00000  Uiso   1.00
C697   C     0.60213   0.24721   0.79886   0.00000  Uiso   1.00
C698   C     0.63410   0.29652   0.80618   0.00000  Uiso   1.00
C699   C     0.70306   0.36544   0.80355   0.00000  Uiso   1.00
C700   C     0.45214   0.22185   0.78667   0.00000  Uiso   1.00
C701   C     0.42685   0.19862   0.72212   0.00000  Uiso   1.00
C702   C     0.37865   0.22571   0.69434   0.00000  Uiso   1.00
C703   C     0.29976   0.25364   0.62699   0.00000  Uiso   1.00
C704   C     0.46451   0.28855   0.89198   0.00000  Uiso   1.00
C705   C     0.46596   0.23711   0.94502   0.00000  Uiso   1.00
C706   C     0.44795   0.23622   0.02060   0.00000  Uiso   1.00
C707   C     0.45278   0.18496   0.05944   0.00000  Uiso   1.00
C708   C     0.52531   0.29683   0.86389   0.00000  Uiso   1.00
C709   C     0.55720   0.34616   0.87125   0.00000  Uiso   1.00
C710   C     0.61200   0.34519   0.84179   0.00000  Uiso   1.00
C711   C     0.43008   0.27043   0.82221   0.00000  Uiso   1.00
C712   C     0.38192   0.29757   0.79452   0.00000  Uiso   1.00
C713   C     0.35655   0.27438   0.72994   0.00000  Uiso   1.00
H714   H     0.52229   0.16130   0.79888   0.00000  Uiso   1.00
H715   H     0.50995   0.09968   0.92069   0.00000  Uiso   1.00
H716   H     0.61919   0.20961   0.77136   0.00000  Uiso   1.00
H717   H     0.44393   0.16103   0.69463   0.00000  Uiso   1.00
H718   H     0.48656   0.05280   0.07142   0.00000  Uiso   1.00
H719   H     0.71689   0.28460   0.75651   0.00000  Uiso   1.00
H720   H     0.34732   0.18215   0.59473   0.00000  Uiso   1.00
H721   H     0.44734   0.32637   0.91965   0.00000  Uiso   1.00
H722   H     0.43088   0.27382   0.04809   0.00000  Uiso   1.00
H723   H     0.54012   0.38374   0.89875   0.00000  Uiso   1.00
H724   H     0.36486   0.33516   0.82203   0.00000  Uiso   1.00
H725   H     0.42239   0.19413   0.17483   0.00000  Uiso   1.00
H726   H     0.65272   0.42593   0.85991   0.00000  Uiso   1.00
H727   H     0.28315   0.32348   0.69813   0.00000  Uiso   1.00
O728   O     0.44502   0.08592   0.20545   0.00000  Uiso   1.00
O729   O     0.74719   0.39003   0.79228   0.00000  Uiso   1.00
O730   O     0.26233   0.25562   0.58003   0.00000  Uiso   1.00
N731   N     0.47371   0.09327   0.07813   0.00000  Uiso   1.00
N732   N     0.68905   0.30999   0.78372   0.00000  Uiso   1.00
N733   N     0.34354   0.21422   0.63245   0.00000  Uiso   1.00
N734   N     0.43918   0.16932   0.13377   0.00000  Uiso   1.00
N735   N     0.65452   0.38604   0.83936   0.00000  Uiso   1.00
N736   N     0.30901   0.29027   0.68809   0.00000  Uiso   1.00
