data_job_02046
_audit_creation_date              2018-12-19
_audit_creation_method            'Materials Studio'
_symmetry_space_group_name_H-M    'P1'
_symmetry_Int_Tables_number       1
_symmetry_cell_setting            triclinic
loop_
_symmetry_equiv_pos_as_xyz
  x,y,z
_cell_length_a                    41.9140
_cell_length_b                    36.9312
_cell_length_c                    7.0657
_cell_angle_alpha                 90.0000
_cell_angle_beta                  90.0000
_cell_angle_gamma                 90.0000
loop_
_atom_site_label
_atom_site_type_symbol
_atom_site_fract_x
_atom_site_fract_y
_atom_site_fract_z
_atom_site_U_iso_or_equiv
_atom_site_adp_type
_atom_site_occupancy
C1     C     0.58771   0.49487   0.80054   0.00000  Uiso   1.00
C2     C     0.56859   0.51718   0.65871   0.00000  Uiso   1.00
C3     C     0.54905   0.54635   0.70221   0.00000  Uiso   1.00
C4     C     0.53360   0.56318   0.55230   0.00000  Uiso   1.00
C5     C     0.50330   0.59963   0.36046   0.00000  Uiso   1.00
C6     C     0.57721   0.45569   0.77266   0.00000  Uiso   1.00
C7     C     0.56493   0.43317   0.91199   0.00000  Uiso   1.00
C8     C     0.55674   0.39823   0.85801   0.00000  Uiso   1.00
C9     C     0.53985   0.33922   0.84313   0.00000  Uiso   1.00
C10    C     0.62232   0.49666   0.73478   0.00000  Uiso   1.00
C11    C     0.64797   0.50856   0.84228   0.00000  Uiso   1.00
C12    C     0.67777   0.50811   0.75641   0.00000  Uiso   1.00
C13    C     0.73091   0.51270   0.68272   0.00000  Uiso   1.00
C14    C     0.59501   0.47287   0.45693   0.00000  Uiso   1.00
C15    C     0.57256   0.50523   0.47207   0.00000  Uiso   1.00
C16    C     0.55713   0.52202   0.32205   0.00000  Uiso   1.00
C17    C     0.53758   0.55122   0.36532   0.00000  Uiso   1.00
C18    C     0.58118   0.44375   0.58604   0.00000  Uiso   1.00
C19    C     0.57301   0.40884   0.53183   0.00000  Uiso   1.00
C20    C     0.56072   0.38627   0.67104   0.00000  Uiso   1.00
C21    C     0.62629   0.48471   0.54815   0.00000  Uiso   1.00
C22    C     0.65605   0.48423   0.46211   0.00000  Uiso   1.00
C23    C     0.68174   0.49614   0.56945   0.00000  Uiso   1.00
H24    H     0.58462   0.50417   0.94584   0.00000  Uiso   1.00
H25    H     0.54599   0.55559   0.84666   0.00000  Uiso   1.00
H26    H     0.56187   0.44242   0.05641   0.00000  Uiso   1.00
H27    H     0.64489   0.51781   0.98670   0.00000  Uiso   1.00
H28    H     0.50489   0.60732   0.65441   0.00000  Uiso   1.00
H29    H     0.53839   0.36870   0.09669   0.00000  Uiso   1.00
H30    H     0.71347   0.52766   0.94969   0.00000  Uiso   1.00
H31    H     0.59810   0.46357   0.31163   0.00000  Uiso   1.00
H32    H     0.56021   0.51277   0.17764   0.00000  Uiso   1.00
H33    H     0.57609   0.39960   0.38740   0.00000  Uiso   1.00
H34    H     0.65911   0.47499   0.31768   0.00000  Uiso   1.00
H35    H     0.51644   0.57257   0.11140   0.00000  Uiso   1.00
H36    H     0.54993   0.33394   0.55369   0.00000  Uiso   1.00
H37    H     0.72501   0.49291   0.40669   0.00000  Uiso   1.00
O38    O     0.48549   0.62303   0.30621   0.00000  Uiso   1.00
O39    O     0.52943   0.30997   0.88648   0.00000  Uiso   1.00
O40    O     0.75913   0.51853   0.69362   0.00000  Uiso   1.00
N41    N     0.51282   0.59240   0.54499   0.00000  Uiso   1.00
N42    N     0.54413   0.36930   0.95850   0.00000  Uiso   1.00
N43    N     0.70781   0.51791   0.82108   0.00000  Uiso   1.00
N44    N     0.51903   0.57370   0.25281   0.00000  Uiso   1.00
N45    N     0.55034   0.35060   0.66631   0.00000  Uiso   1.00
N46    N     0.71402   0.49921   0.52890   0.00000  Uiso   1.00
C47    C     0.58771   0.99487   0.30054   0.00000  Uiso   1.00
C48    C     0.56859   0.01718   0.15871   0.00000  Uiso   1.00
C49    C     0.54905   0.04635   0.20221   0.00000  Uiso   1.00
C50    C     0.53360   0.06318   0.05230   0.00000  Uiso   1.00
C51    C     0.50330   0.09963   0.86046   0.00000  Uiso   1.00
C52    C     0.57721   0.95569   0.27266   0.00000  Uiso   1.00
C53    C     0.56493   0.93317   0.41199   0.00000  Uiso   1.00
C54    C     0.55674   0.89823   0.35801   0.00000  Uiso   1.00
C55    C     0.53985   0.83922   0.34313   0.00000  Uiso   1.00
C56    C     0.62232   0.99666   0.23478   0.00000  Uiso   1.00
C57    C     0.64797   0.00856   0.34228   0.00000  Uiso   1.00
C58    C     0.67777   0.00811   0.25641   0.00000  Uiso   1.00
C59    C     0.73091   0.01270   0.18272   0.00000  Uiso   1.00
C60    C     0.59501   0.97287   0.95693   0.00000  Uiso   1.00
C61    C     0.57256   0.00523   0.97207   0.00000  Uiso   1.00
C62    C     0.55713   0.02202   0.82205   0.00000  Uiso   1.00
C63    C     0.53758   0.05122   0.86532   0.00000  Uiso   1.00
C64    C     0.58118   0.94375   0.08604   0.00000  Uiso   1.00
C65    C     0.57301   0.90884   0.03183   0.00000  Uiso   1.00
C66    C     0.56072   0.88627   0.17104   0.00000  Uiso   1.00
C67    C     0.62629   0.98471   0.04815   0.00000  Uiso   1.00
C68    C     0.65605   0.98423   0.96211   0.00000  Uiso   1.00
C69    C     0.68174   0.99614   0.06945   0.00000  Uiso   1.00
H70    H     0.58462   0.00417   0.44584   0.00000  Uiso   1.00
H71    H     0.54599   0.05559   0.34666   0.00000  Uiso   1.00
H72    H     0.56187   0.94242   0.55641   0.00000  Uiso   1.00
H73    H     0.64489   0.01781   0.48670   0.00000  Uiso   1.00
H74    H     0.50489   0.10732   0.15441   0.00000  Uiso   1.00
H75    H     0.53839   0.86870   0.59669   0.00000  Uiso   1.00
H76    H     0.71347   0.02766   0.44969   0.00000  Uiso   1.00
H77    H     0.59810   0.96357   0.81163   0.00000  Uiso   1.00
H78    H     0.56021   0.01277   0.67764   0.00000  Uiso   1.00
H79    H     0.57609   0.89960   0.88740   0.00000  Uiso   1.00
H80    H     0.65911   0.97499   0.81768   0.00000  Uiso   1.00
H81    H     0.51644   0.07257   0.61140   0.00000  Uiso   1.00
H82    H     0.54993   0.83394   0.05369   0.00000  Uiso   1.00
H83    H     0.72501   0.99291   0.90669   0.00000  Uiso   1.00
O84    O     0.48549   0.12303   0.80621   0.00000  Uiso   1.00
O85    O     0.52943   0.80997   0.38648   0.00000  Uiso   1.00
O86    O     0.75913   0.01853   0.19362   0.00000  Uiso   1.00
N87    N     0.51282   0.09240   0.04499   0.00000  Uiso   1.00
N88    N     0.54413   0.86930   0.45850   0.00000  Uiso   1.00
N89    N     0.70781   0.01791   0.32108   0.00000  Uiso   1.00
N90    N     0.51903   0.07370   0.75281   0.00000  Uiso   1.00
N91    N     0.55034   0.85060   0.16631   0.00000  Uiso   1.00
N92    N     0.71402   0.99921   0.02890   0.00000  Uiso   1.00
C93    C     0.08771   0.49487   0.30054   0.00000  Uiso   1.00
C94    C     0.06859   0.51718   0.15871   0.00000  Uiso   1.00
C95    C     0.04905   0.54635   0.20221   0.00000  Uiso   1.00
C96    C     0.03360   0.56318   0.05230   0.00000  Uiso   1.00
C97    C     0.00330   0.59963   0.86046   0.00000  Uiso   1.00
C98    C     0.07721   0.45569   0.27266   0.00000  Uiso   1.00
C99    C     0.06493   0.43317   0.41199   0.00000  Uiso   1.00
C100   C     0.05674   0.39823   0.35801   0.00000  Uiso   1.00
C101   C     0.03985   0.33922   0.34313   0.00000  Uiso   1.00
C102   C     0.12232   0.49666   0.23478   0.00000  Uiso   1.00
C103   C     0.14797   0.50856   0.34228   0.00000  Uiso   1.00
C104   C     0.17777   0.50811   0.25641   0.00000  Uiso   1.00
C105   C     0.23091   0.51270   0.18272   0.00000  Uiso   1.00
C106   C     0.09501   0.47287   0.95693   0.00000  Uiso   1.00
C107   C     0.07256   0.50523   0.97207   0.00000  Uiso   1.00
C108   C     0.05713   0.52202   0.82205   0.00000  Uiso   1.00
C109   C     0.03758   0.55122   0.86532   0.00000  Uiso   1.00
C110   C     0.08118   0.44375   0.08604   0.00000  Uiso   1.00
C111   C     0.07301   0.40884   0.03183   0.00000  Uiso   1.00
C112   C     0.06072   0.38627   0.17104   0.00000  Uiso   1.00
C113   C     0.12629   0.48471   0.04815   0.00000  Uiso   1.00
C114   C     0.15605   0.48423   0.96211   0.00000  Uiso   1.00
C115   C     0.18174   0.49614   0.06945   0.00000  Uiso   1.00
H116   H     0.08462   0.50417   0.44584   0.00000  Uiso   1.00
H117   H     0.04599   0.55559   0.34666   0.00000  Uiso   1.00
H118   H     0.06187   0.44242   0.55641   0.00000  Uiso   1.00
H119   H     0.14489   0.51781   0.48670   0.00000  Uiso   1.00
H120   H     0.00489   0.60732   0.15441   0.00000  Uiso   1.00
H121   H     0.03839   0.36870   0.59669   0.00000  Uiso   1.00
H122   H     0.21347   0.52766   0.44969   0.00000  Uiso   1.00
H123   H     0.09810   0.46357   0.81163   0.00000  Uiso   1.00
H124   H     0.06021   0.51277   0.67764   0.00000  Uiso   1.00
H125   H     0.07609   0.39960   0.88740   0.00000  Uiso   1.00
H126   H     0.15911   0.47499   0.81768   0.00000  Uiso   1.00
H127   H     0.01644   0.57257   0.61140   0.00000  Uiso   1.00
H128   H     0.04993   0.33394   0.05369   0.00000  Uiso   1.00
H129   H     0.22501   0.49291   0.90669   0.00000  Uiso   1.00
O130   O     0.98549   0.62303   0.80621   0.00000  Uiso   1.00
O131   O     0.02943   0.30997   0.38648   0.00000  Uiso   1.00
O132   O     0.25913   0.51853   0.19362   0.00000  Uiso   1.00
N133   N     0.01282   0.59240   0.04499   0.00000  Uiso   1.00
N134   N     0.04413   0.36930   0.45850   0.00000  Uiso   1.00
N135   N     0.20781   0.51791   0.32108   0.00000  Uiso   1.00
N136   N     0.01903   0.57370   0.75281   0.00000  Uiso   1.00
N137   N     0.05034   0.35060   0.16631   0.00000  Uiso   1.00
N138   N     0.21402   0.49921   0.02890   0.00000  Uiso   1.00
C139   C     0.08771   0.99487   0.80054   0.00000  Uiso   1.00
C140   C     0.06859   0.01718   0.65871   0.00000  Uiso   1.00
C141   C     0.04905   0.04635   0.70221   0.00000  Uiso   1.00
C142   C     0.03360   0.06318   0.55230   0.00000  Uiso   1.00
C143   C     0.00330   0.09963   0.36046   0.00000  Uiso   1.00
C144   C     0.07721   0.95569   0.77266   0.00000  Uiso   1.00
C145   C     0.06493   0.93317   0.91199   0.00000  Uiso   1.00
C146   C     0.05674   0.89823   0.85801   0.00000  Uiso   1.00
C147   C     0.03985   0.83922   0.84313   0.00000  Uiso   1.00
C148   C     0.12232   0.99666   0.73478   0.00000  Uiso   1.00
C149   C     0.14797   0.00856   0.84228   0.00000  Uiso   1.00
C150   C     0.17777   0.00811   0.75641   0.00000  Uiso   1.00
C151   C     0.23091   0.01270   0.68272   0.00000  Uiso   1.00
C152   C     0.09501   0.97287   0.45693   0.00000  Uiso   1.00
C153   C     0.07256   0.00523   0.47207   0.00000  Uiso   1.00
C154   C     0.05713   0.02202   0.32205   0.00000  Uiso   1.00
C155   C     0.03758   0.05122   0.36532   0.00000  Uiso   1.00
C156   C     0.08118   0.94375   0.58604   0.00000  Uiso   1.00
C157   C     0.07301   0.90884   0.53183   0.00000  Uiso   1.00
C158   C     0.06072   0.88627   0.67104   0.00000  Uiso   1.00
C159   C     0.12629   0.98471   0.54815   0.00000  Uiso   1.00
C160   C     0.15605   0.98423   0.46211   0.00000  Uiso   1.00
C161   C     0.18174   0.99614   0.56945   0.00000  Uiso   1.00
H162   H     0.08462   0.00417   0.94584   0.00000  Uiso   1.00
H163   H     0.04599   0.05559   0.84666   0.00000  Uiso   1.00
H164   H     0.06187   0.94242   0.05641   0.00000  Uiso   1.00
H165   H     0.14489   0.01781   0.98670   0.00000  Uiso   1.00
H166   H     0.00489   0.10732   0.65441   0.00000  Uiso   1.00
H167   H     0.03839   0.86870   0.09669   0.00000  Uiso   1.00
H168   H     0.21347   0.02766   0.94969   0.00000  Uiso   1.00
H169   H     0.09810   0.96357   0.31163   0.00000  Uiso   1.00
H170   H     0.06021   0.01277   0.17764   0.00000  Uiso   1.00
H171   H     0.07609   0.89960   0.38740   0.00000  Uiso   1.00
H172   H     0.15911   0.97499   0.31768   0.00000  Uiso   1.00
H173   H     0.01644   0.07257   0.11140   0.00000  Uiso   1.00
H174   H     0.04993   0.83394   0.55369   0.00000  Uiso   1.00
H175   H     0.22501   0.99291   0.40669   0.00000  Uiso   1.00
O176   O     0.98549   0.12303   0.30621   0.00000  Uiso   1.00
O177   O     0.02943   0.80997   0.88648   0.00000  Uiso   1.00
O178   O     0.25913   0.01853   0.69362   0.00000  Uiso   1.00
N179   N     0.01282   0.09240   0.54499   0.00000  Uiso   1.00
N180   N     0.04413   0.86930   0.95850   0.00000  Uiso   1.00
N181   N     0.20781   0.01791   0.82108   0.00000  Uiso   1.00
N182   N     0.01903   0.07370   0.25281   0.00000  Uiso   1.00
N183   N     0.05034   0.85060   0.66631   0.00000  Uiso   1.00
N184   N     0.21402   0.99921   0.52890   0.00000  Uiso   1.00
C185   C     0.41229   0.50513   0.80054   0.00000  Uiso   1.00
C186   C     0.43141   0.48282   0.65871   0.00000  Uiso   1.00
C187   C     0.45095   0.45365   0.70221   0.00000  Uiso   1.00
C188   C     0.46640   0.43682   0.55230   0.00000  Uiso   1.00
C189   C     0.49670   0.40037   0.36046   0.00000  Uiso   1.00
C190   C     0.42279   0.54431   0.77266   0.00000  Uiso   1.00
C191   C     0.43507   0.56683   0.91199   0.00000  Uiso   1.00
C192   C     0.44326   0.60177   0.85801   0.00000  Uiso   1.00
C193   C     0.46015   0.66078   0.84313   0.00000  Uiso   1.00
C194   C     0.37768   0.50334   0.73478   0.00000  Uiso   1.00
C195   C     0.35203   0.49144   0.84228   0.00000  Uiso   1.00
C196   C     0.32223   0.49189   0.75641   0.00000  Uiso   1.00
C197   C     0.26909   0.48730   0.68272   0.00000  Uiso   1.00
C198   C     0.40499   0.52713   0.45693   0.00000  Uiso   1.00
C199   C     0.42744   0.49477   0.47207   0.00000  Uiso   1.00
C200   C     0.44287   0.47798   0.32205   0.00000  Uiso   1.00
C201   C     0.46242   0.44878   0.36532   0.00000  Uiso   1.00
C202   C     0.41882   0.55625   0.58604   0.00000  Uiso   1.00
C203   C     0.42699   0.59116   0.53183   0.00000  Uiso   1.00
C204   C     0.43928   0.61373   0.67104   0.00000  Uiso   1.00
C205   C     0.37371   0.51529   0.54815   0.00000  Uiso   1.00
C206   C     0.34395   0.51577   0.46211   0.00000  Uiso   1.00
C207   C     0.31826   0.50386   0.56945   0.00000  Uiso   1.00
H208   H     0.41538   0.49583   0.94584   0.00000  Uiso   1.00
H209   H     0.45401   0.44441   0.84666   0.00000  Uiso   1.00
H210   H     0.43813   0.55758   0.05641   0.00000  Uiso   1.00
H211   H     0.35511   0.48219   0.98670   0.00000  Uiso   1.00
H212   H     0.49511   0.39268   0.65441   0.00000  Uiso   1.00
H213   H     0.46161   0.63130   0.09669   0.00000  Uiso   1.00
H214   H     0.28653   0.47234   0.94969   0.00000  Uiso   1.00
H215   H     0.40190   0.53643   0.31163   0.00000  Uiso   1.00
H216   H     0.43979   0.48723   0.17764   0.00000  Uiso   1.00
H217   H     0.42391   0.60040   0.38740   0.00000  Uiso   1.00
H218   H     0.34089   0.52501   0.31768   0.00000  Uiso   1.00
H219   H     0.48356   0.42743   0.11140   0.00000  Uiso   1.00
H220   H     0.45007   0.66606   0.55369   0.00000  Uiso   1.00
H221   H     0.27499   0.50709   0.40669   0.00000  Uiso   1.00
O222   O     0.51451   0.37697   0.30621   0.00000  Uiso   1.00
O223   O     0.47057   0.69003   0.88648   0.00000  Uiso   1.00
O224   O     0.24087   0.48147   0.69362   0.00000  Uiso   1.00
N225   N     0.48718   0.40760   0.54499   0.00000  Uiso   1.00
N226   N     0.45587   0.63070   0.95850   0.00000  Uiso   1.00
N227   N     0.29219   0.48209   0.82108   0.00000  Uiso   1.00
N228   N     0.48097   0.42630   0.25281   0.00000  Uiso   1.00
N229   N     0.44966   0.64940   0.66631   0.00000  Uiso   1.00
N230   N     0.28598   0.50079   0.52890   0.00000  Uiso   1.00
C231   C     0.41229   0.00513   0.30054   0.00000  Uiso   1.00
C232   C     0.43141   0.98282   0.15871   0.00000  Uiso   1.00
C233   C     0.45095   0.95365   0.20221   0.00000  Uiso   1.00
C234   C     0.46640   0.93682   0.05230   0.00000  Uiso   1.00
C235   C     0.49670   0.90037   0.86046   0.00000  Uiso   1.00
C236   C     0.42279   0.04431   0.27266   0.00000  Uiso   1.00
C237   C     0.43507   0.06683   0.41199   0.00000  Uiso   1.00
C238   C     0.44326   0.10177   0.35801   0.00000  Uiso   1.00
C239   C     0.46015   0.16078   0.34313   0.00000  Uiso   1.00
C240   C     0.37768   0.00334   0.23478   0.00000  Uiso   1.00
C241   C     0.35203   0.99144   0.34228   0.00000  Uiso   1.00
C242   C     0.32223   0.99189   0.25641   0.00000  Uiso   1.00
C243   C     0.26909   0.98730   0.18272   0.00000  Uiso   1.00
C244   C     0.40499   0.02713   0.95693   0.00000  Uiso   1.00
C245   C     0.42744   0.99477   0.97207   0.00000  Uiso   1.00
C246   C     0.44287   0.97798   0.82205   0.00000  Uiso   1.00
C247   C     0.46242   0.94878   0.86532   0.00000  Uiso   1.00
C248   C     0.41882   0.05625   0.08604   0.00000  Uiso   1.00
C249   C     0.42699   0.09116   0.03183   0.00000  Uiso   1.00
C250   C     0.43928   0.11373   0.17104   0.00000  Uiso   1.00
C251   C     0.37371   0.01529   0.04815   0.00000  Uiso   1.00
C252   C     0.34395   0.01577   0.96211   0.00000  Uiso   1.00
C253   C     0.31826   0.00386   0.06945   0.00000  Uiso   1.00
H254   H     0.41538   0.99583   0.44584   0.00000  Uiso   1.00
H255   H     0.45401   0.94441   0.34666   0.00000  Uiso   1.00
H256   H     0.43813   0.05758   0.55641   0.00000  Uiso   1.00
H257   H     0.35511   0.98219   0.48670   0.00000  Uiso   1.00
H258   H     0.49511   0.89268   0.15441   0.00000  Uiso   1.00
H259   H     0.46161   0.13130   0.59669   0.00000  Uiso   1.00
H260   H     0.28653   0.97234   0.44969   0.00000  Uiso   1.00
H261   H     0.40190   0.03643   0.81163   0.00000  Uiso   1.00
H262   H     0.43979   0.98723   0.67764   0.00000  Uiso   1.00
H263   H     0.42391   0.10040   0.88740   0.00000  Uiso   1.00
H264   H     0.34089   0.02501   0.81768   0.00000  Uiso   1.00
H265   H     0.48356   0.92743   0.61140   0.00000  Uiso   1.00
H266   H     0.45007   0.16606   0.05369   0.00000  Uiso   1.00
H267   H     0.27499   0.00709   0.90669   0.00000  Uiso   1.00
O268   O     0.51451   0.87697   0.80621   0.00000  Uiso   1.00
O269   O     0.47057   0.19003   0.38648   0.00000  Uiso   1.00
O270   O     0.24087   0.98147   0.19362   0.00000  Uiso   1.00
N271   N     0.48718   0.90760   0.04499   0.00000  Uiso   1.00
N272   N     0.45587   0.13070   0.45850   0.00000  Uiso   1.00
N273   N     0.29219   0.98209   0.32108   0.00000  Uiso   1.00
N274   N     0.48097   0.92630   0.75281   0.00000  Uiso   1.00
N275   N     0.44966   0.14940   0.16631   0.00000  Uiso   1.00
N276   N     0.28598   0.00079   0.02890   0.00000  Uiso   1.00
C277   C     0.91229   0.50513   0.30054   0.00000  Uiso   1.00
C278   C     0.93141   0.48282   0.15871   0.00000  Uiso   1.00
C279   C     0.95095   0.45365   0.20221   0.00000  Uiso   1.00
C280   C     0.96640   0.43682   0.05230   0.00000  Uiso   1.00
C281   C     0.99670   0.40037   0.86046   0.00000  Uiso   1.00
C282   C     0.92279   0.54431   0.27266   0.00000  Uiso   1.00
C283   C     0.93507   0.56683   0.41199   0.00000  Uiso   1.00
C284   C     0.94326   0.60177   0.35801   0.00000  Uiso   1.00
C285   C     0.96015   0.66078   0.34313   0.00000  Uiso   1.00
C286   C     0.87768   0.50334   0.23478   0.00000  Uiso   1.00
C287   C     0.85203   0.49144   0.34228   0.00000  Uiso   1.00
C288   C     0.82223   0.49189   0.25641   0.00000  Uiso   1.00
C289   C     0.76909   0.48730   0.18272   0.00000  Uiso   1.00
C290   C     0.90499   0.52713   0.95693   0.00000  Uiso   1.00
C291   C     0.92744   0.49477   0.97207   0.00000  Uiso   1.00
C292   C     0.94287   0.47798   0.82205   0.00000  Uiso   1.00
C293   C     0.96242   0.44878   0.86532   0.00000  Uiso   1.00
C294   C     0.91882   0.55625   0.08604   0.00000  Uiso   1.00
C295   C     0.92699   0.59116   0.03183   0.00000  Uiso   1.00
C296   C     0.93928   0.61373   0.17104   0.00000  Uiso   1.00
C297   C     0.87371   0.51529   0.04815   0.00000  Uiso   1.00
C298   C     0.84395   0.51577   0.96211   0.00000  Uiso   1.00
C299   C     0.81826   0.50386   0.06945   0.00000  Uiso   1.00
H300   H     0.91538   0.49583   0.44584   0.00000  Uiso   1.00
H301   H     0.95401   0.44441   0.34666   0.00000  Uiso   1.00
H302   H     0.93813   0.55758   0.55641   0.00000  Uiso   1.00
H303   H     0.85511   0.48219   0.48670   0.00000  Uiso   1.00
H304   H     0.99511   0.39268   0.15441   0.00000  Uiso   1.00
H305   H     0.96161   0.63130   0.59669   0.00000  Uiso   1.00
H306   H     0.78653   0.47234   0.44969   0.00000  Uiso   1.00
H307   H     0.90190   0.53643   0.81163   0.00000  Uiso   1.00
H308   H     0.93979   0.48723   0.67764   0.00000  Uiso   1.00
H309   H     0.92391   0.60040   0.88740   0.00000  Uiso   1.00
H310   H     0.84089   0.52501   0.81768   0.00000  Uiso   1.00
H311   H     0.98356   0.42743   0.61140   0.00000  Uiso   1.00
H312   H     0.95007   0.66606   0.05369   0.00000  Uiso   1.00
H313   H     0.77499   0.50709   0.90669   0.00000  Uiso   1.00
O314   O     0.01451   0.37697   0.80621   0.00000  Uiso   1.00
O315   O     0.97057   0.69003   0.38648   0.00000  Uiso   1.00
O316   O     0.74087   0.48147   0.19362   0.00000  Uiso   1.00
N317   N     0.98718   0.40760   0.04499   0.00000  Uiso   1.00
N318   N     0.95587   0.63070   0.45850   0.00000  Uiso   1.00
N319   N     0.79219   0.48209   0.32108   0.00000  Uiso   1.00
N320   N     0.98097   0.42630   0.75281   0.00000  Uiso   1.00
N321   N     0.94966   0.64940   0.16631   0.00000  Uiso   1.00
N322   N     0.78598   0.50079   0.02890   0.00000  Uiso   1.00
C323   C     0.91229   0.00513   0.80054   0.00000  Uiso   1.00
C324   C     0.93141   0.98282   0.65871   0.00000  Uiso   1.00
C325   C     0.95095   0.95365   0.70221   0.00000  Uiso   1.00
C326   C     0.96640   0.93682   0.55230   0.00000  Uiso   1.00
C327   C     0.99670   0.90037   0.36046   0.00000  Uiso   1.00
C328   C     0.92279   0.04431   0.77266   0.00000  Uiso   1.00
C329   C     0.93507   0.06683   0.91199   0.00000  Uiso   1.00
C330   C     0.94326   0.10177   0.85801   0.00000  Uiso   1.00
C331   C     0.96015   0.16078   0.84313   0.00000  Uiso   1.00
C332   C     0.87768   0.00334   0.73478   0.00000  Uiso   1.00
C333   C     0.85203   0.99144   0.84228   0.00000  Uiso   1.00
C334   C     0.82223   0.99189   0.75641   0.00000  Uiso   1.00
C335   C     0.76909   0.98730   0.68272   0.00000  Uiso   1.00
C336   C     0.90499   0.02713   0.45693   0.00000  Uiso   1.00
C337   C     0.92744   0.99477   0.47207   0.00000  Uiso   1.00
C338   C     0.94287   0.97798   0.32205   0.00000  Uiso   1.00
C339   C     0.96242   0.94878   0.36532   0.00000  Uiso   1.00
C340   C     0.91882   0.05625   0.58604   0.00000  Uiso   1.00
C341   C     0.92699   0.09116   0.53183   0.00000  Uiso   1.00
C342   C     0.93928   0.11373   0.67104   0.00000  Uiso   1.00
C343   C     0.87371   0.01529   0.54815   0.00000  Uiso   1.00
C344   C     0.84395   0.01577   0.46211   0.00000  Uiso   1.00
C345   C     0.81826   0.00386   0.56945   0.00000  Uiso   1.00
H346   H     0.91538   0.99583   0.94584   0.00000  Uiso   1.00
H347   H     0.95401   0.94441   0.84666   0.00000  Uiso   1.00
H348   H     0.93813   0.05758   0.05641   0.00000  Uiso   1.00
H349   H     0.85511   0.98219   0.98670   0.00000  Uiso   1.00
H350   H     0.99511   0.89268   0.65441   0.00000  Uiso   1.00
H351   H     0.96161   0.13130   0.09669   0.00000  Uiso   1.00
H352   H     0.78653   0.97234   0.94969   0.00000  Uiso   1.00
H353   H     0.90190   0.03643   0.31163   0.00000  Uiso   1.00
H354   H     0.93979   0.98723   0.17764   0.00000  Uiso   1.00
H355   H     0.92391   0.10040   0.38740   0.00000  Uiso   1.00
H356   H     0.84089   0.02501   0.31768   0.00000  Uiso   1.00
H357   H     0.98356   0.92743   0.11140   0.00000  Uiso   1.00
H358   H     0.95007   0.16606   0.55369   0.00000  Uiso   1.00
H359   H     0.77499   0.00709   0.40669   0.00000  Uiso   1.00
O360   O     0.01451   0.87697   0.30621   0.00000  Uiso   1.00
O361   O     0.97057   0.19003   0.88648   0.00000  Uiso   1.00
O362   O     0.74087   0.98147   0.69362   0.00000  Uiso   1.00
N363   N     0.98718   0.90760   0.54499   0.00000  Uiso   1.00
N364   N     0.95587   0.13070   0.95850   0.00000  Uiso   1.00
N365   N     0.79219   0.98209   0.82108   0.00000  Uiso   1.00
N366   N     0.98097   0.92630   0.25281   0.00000  Uiso   1.00
N367   N     0.94966   0.14940   0.66631   0.00000  Uiso   1.00
N368   N     0.78598   0.00079   0.52890   0.00000  Uiso   1.00
C369   C     0.83771   0.75513   0.05054   0.00000  Uiso   1.00
C370   C     0.81859   0.73282   0.90871   0.00000  Uiso   1.00
C371   C     0.79905   0.70365   0.95221   0.00000  Uiso   1.00
C372   C     0.78360   0.68682   0.80230   0.00000  Uiso   1.00
C373   C     0.75330   0.65037   0.61046   0.00000  Uiso   1.00
C374   C     0.82721   0.79431   0.02266   0.00000  Uiso   1.00
C375   C     0.81493   0.81683   0.16199   0.00000  Uiso   1.00
C376   C     0.80674   0.85177   0.10801   0.00000  Uiso   1.00
C377   C     0.78985   0.91078   0.09313   0.00000  Uiso   1.00
C378   C     0.87232   0.75334   0.98478   0.00000  Uiso   1.00
C379   C     0.89797   0.74144   0.09228   0.00000  Uiso   1.00
C380   C     0.92777   0.74189   0.00641   0.00000  Uiso   1.00
C381   C     0.98091   0.73730   0.93272   0.00000  Uiso   1.00
C382   C     0.84501   0.77713   0.70693   0.00000  Uiso   1.00
C383   C     0.82256   0.74477   0.72207   0.00000  Uiso   1.00
C384   C     0.80713   0.72798   0.57205   0.00000  Uiso   1.00
C385   C     0.78758   0.69878   0.61532   0.00000  Uiso   1.00
C386   C     0.83118   0.80625   0.83604   0.00000  Uiso   1.00
C387   C     0.82301   0.84116   0.78183   0.00000  Uiso   1.00
C388   C     0.81072   0.86373   0.92104   0.00000  Uiso   1.00
C389   C     0.87629   0.76529   0.79815   0.00000  Uiso   1.00
C390   C     0.90605   0.76577   0.71211   0.00000  Uiso   1.00
C391   C     0.93174   0.75386   0.81945   0.00000  Uiso   1.00
H392   H     0.83462   0.74583   0.19584   0.00000  Uiso   1.00
H393   H     0.79599   0.69441   0.09666   0.00000  Uiso   1.00
H394   H     0.81187   0.80758   0.30641   0.00000  Uiso   1.00
H395   H     0.89489   0.73219   0.23670   0.00000  Uiso   1.00
H396   H     0.75489   0.64268   0.90441   0.00000  Uiso   1.00
H397   H     0.78839   0.88130   0.34669   0.00000  Uiso   1.00
H398   H     0.96347   0.72234   0.19969   0.00000  Uiso   1.00
H399   H     0.84810   0.78643   0.56163   0.00000  Uiso   1.00
H400   H     0.81021   0.73723   0.42764   0.00000  Uiso   1.00
H401   H     0.82609   0.85040   0.63740   0.00000  Uiso   1.00
H402   H     0.90911   0.77501   0.56768   0.00000  Uiso   1.00
H403   H     0.76644   0.67743   0.36140   0.00000  Uiso   1.00
H404   H     0.79993   0.91606   0.80369   0.00000  Uiso   1.00
H405   H     0.97501   0.75709   0.65669   0.00000  Uiso   1.00
O406   O     0.73549   0.62697   0.55621   0.00000  Uiso   1.00
O407   O     0.77943   0.94003   0.13648   0.00000  Uiso   1.00
O408   O     0.00913   0.73147   0.94362   0.00000  Uiso   1.00
N409   N     0.76282   0.65760   0.79499   0.00000  Uiso   1.00
N410   N     0.79413   0.88070   0.20850   0.00000  Uiso   1.00
N411   N     0.95781   0.73209   0.07108   0.00000  Uiso   1.00
N412   N     0.76903   0.67630   0.50281   0.00000  Uiso   1.00
N413   N     0.80034   0.89940   0.91631   0.00000  Uiso   1.00
N414   N     0.96402   0.75079   0.77890   0.00000  Uiso   1.00
C415   C     0.83771   0.25513   0.55054   0.00000  Uiso   1.00
C416   C     0.81859   0.23282   0.40871   0.00000  Uiso   1.00
C417   C     0.79905   0.20365   0.45221   0.00000  Uiso   1.00
C418   C     0.78360   0.18682   0.30230   0.00000  Uiso   1.00
C419   C     0.75330   0.15037   0.11046   0.00000  Uiso   1.00
C420   C     0.82721   0.29431   0.52266   0.00000  Uiso   1.00
C421   C     0.81493   0.31683   0.66199   0.00000  Uiso   1.00
C422   C     0.80674   0.35177   0.60801   0.00000  Uiso   1.00
C423   C     0.78985   0.41078   0.59313   0.00000  Uiso   1.00
C424   C     0.87232   0.25334   0.48478   0.00000  Uiso   1.00
C425   C     0.89797   0.24144   0.59228   0.00000  Uiso   1.00
C426   C     0.92777   0.24189   0.50641   0.00000  Uiso   1.00
C427   C     0.98091   0.23730   0.43272   0.00000  Uiso   1.00
C428   C     0.84501   0.27713   0.20693   0.00000  Uiso   1.00
C429   C     0.82256   0.24477   0.22207   0.00000  Uiso   1.00
C430   C     0.80713   0.22798   0.07205   0.00000  Uiso   1.00
C431   C     0.78758   0.19878   0.11532   0.00000  Uiso   1.00
C432   C     0.83118   0.30625   0.33604   0.00000  Uiso   1.00
C433   C     0.82301   0.34116   0.28183   0.00000  Uiso   1.00
C434   C     0.81072   0.36373   0.42104   0.00000  Uiso   1.00
C435   C     0.87629   0.26529   0.29815   0.00000  Uiso   1.00
C436   C     0.90605   0.26577   0.21211   0.00000  Uiso   1.00
C437   C     0.93174   0.25386   0.31945   0.00000  Uiso   1.00
H438   H     0.83462   0.24583   0.69584   0.00000  Uiso   1.00
H439   H     0.79599   0.19441   0.59666   0.00000  Uiso   1.00
H440   H     0.81187   0.30758   0.80641   0.00000  Uiso   1.00
H441   H     0.89489   0.23219   0.73670   0.00000  Uiso   1.00
H442   H     0.75489   0.14268   0.40441   0.00000  Uiso   1.00
H443   H     0.78839   0.38130   0.84669   0.00000  Uiso   1.00
H444   H     0.96347   0.22234   0.69969   0.00000  Uiso   1.00
H445   H     0.84810   0.28643   0.06163   0.00000  Uiso   1.00
H446   H     0.81021   0.23723   0.92764   0.00000  Uiso   1.00
H447   H     0.82609   0.35040   0.13740   0.00000  Uiso   1.00
H448   H     0.90911   0.27501   0.06768   0.00000  Uiso   1.00
H449   H     0.76644   0.17743   0.86140   0.00000  Uiso   1.00
H450   H     0.79993   0.41606   0.30369   0.00000  Uiso   1.00
H451   H     0.97501   0.25709   0.15669   0.00000  Uiso   1.00
O452   O     0.73549   0.12697   0.05621   0.00000  Uiso   1.00
O453   O     0.77943   0.44003   0.63648   0.00000  Uiso   1.00
O454   O     0.00913   0.23147   0.44362   0.00000  Uiso   1.00
N455   N     0.76282   0.15760   0.29499   0.00000  Uiso   1.00
N456   N     0.79413   0.38070   0.70850   0.00000  Uiso   1.00
N457   N     0.95781   0.23209   0.57108   0.00000  Uiso   1.00
N458   N     0.76903   0.17630   0.00281   0.00000  Uiso   1.00
N459   N     0.80034   0.39940   0.41631   0.00000  Uiso   1.00
N460   N     0.96402   0.25079   0.27890   0.00000  Uiso   1.00
C461   C     0.33771   0.75513   0.55054   0.00000  Uiso   1.00
C462   C     0.31859   0.73282   0.40871   0.00000  Uiso   1.00
C463   C     0.29905   0.70365   0.45221   0.00000  Uiso   1.00
C464   C     0.28360   0.68682   0.30230   0.00000  Uiso   1.00
C465   C     0.25330   0.65037   0.11046   0.00000  Uiso   1.00
C466   C     0.32721   0.79431   0.52266   0.00000  Uiso   1.00
C467   C     0.31493   0.81683   0.66199   0.00000  Uiso   1.00
C468   C     0.30674   0.85177   0.60801   0.00000  Uiso   1.00
C469   C     0.28985   0.91078   0.59313   0.00000  Uiso   1.00
C470   C     0.37232   0.75334   0.48478   0.00000  Uiso   1.00
C471   C     0.39797   0.74144   0.59228   0.00000  Uiso   1.00
C472   C     0.42777   0.74189   0.50641   0.00000  Uiso   1.00
C473   C     0.48091   0.73730   0.43272   0.00000  Uiso   1.00
C474   C     0.34501   0.77713   0.20693   0.00000  Uiso   1.00
C475   C     0.32256   0.74477   0.22207   0.00000  Uiso   1.00
C476   C     0.30713   0.72798   0.07205   0.00000  Uiso   1.00
C477   C     0.28758   0.69878   0.11532   0.00000  Uiso   1.00
C478   C     0.33118   0.80625   0.33604   0.00000  Uiso   1.00
C479   C     0.32301   0.84116   0.28183   0.00000  Uiso   1.00
C480   C     0.31072   0.86373   0.42104   0.00000  Uiso   1.00
C481   C     0.37629   0.76529   0.29815   0.00000  Uiso   1.00
C482   C     0.40605   0.76577   0.21211   0.00000  Uiso   1.00
C483   C     0.43174   0.75386   0.31945   0.00000  Uiso   1.00
H484   H     0.33462   0.74583   0.69584   0.00000  Uiso   1.00
H485   H     0.29599   0.69441   0.59666   0.00000  Uiso   1.00
H486   H     0.31187   0.80758   0.80641   0.00000  Uiso   1.00
H487   H     0.39489   0.73219   0.73670   0.00000  Uiso   1.00
H488   H     0.25489   0.64268   0.40441   0.00000  Uiso   1.00
H489   H     0.28839   0.88130   0.84669   0.00000  Uiso   1.00
H490   H     0.46347   0.72234   0.69969   0.00000  Uiso   1.00
H491   H     0.34810   0.78643   0.06163   0.00000  Uiso   1.00
H492   H     0.31021   0.73723   0.92764   0.00000  Uiso   1.00
H493   H     0.32609   0.85040   0.13740   0.00000  Uiso   1.00
H494   H     0.40911   0.77501   0.06768   0.00000  Uiso   1.00
H495   H     0.26644   0.67743   0.86140   0.00000  Uiso   1.00
H496   H     0.29993   0.91606   0.30369   0.00000  Uiso   1.00
H497   H     0.47501   0.75709   0.15669   0.00000  Uiso   1.00
O498   O     0.23549   0.62697   0.05621   0.00000  Uiso   1.00
O499   O     0.27943   0.94003   0.63648   0.00000  Uiso   1.00
O500   O     0.50913   0.73147   0.44362   0.00000  Uiso   1.00
N501   N     0.26282   0.65760   0.29499   0.00000  Uiso   1.00
N502   N     0.29413   0.88070   0.70850   0.00000  Uiso   1.00
N503   N     0.45781   0.73209   0.57108   0.00000  Uiso   1.00
N504   N     0.26903   0.67630   0.00281   0.00000  Uiso   1.00
N505   N     0.30034   0.89940   0.41631   0.00000  Uiso   1.00
N506   N     0.46402   0.75079   0.27890   0.00000  Uiso   1.00
C507   C     0.33771   0.25513   0.05054   0.00000  Uiso   1.00
C508   C     0.31859   0.23282   0.90871   0.00000  Uiso   1.00
C509   C     0.29905   0.20365   0.95221   0.00000  Uiso   1.00
C510   C     0.28360   0.18682   0.80230   0.00000  Uiso   1.00
C511   C     0.25330   0.15037   0.61046   0.00000  Uiso   1.00
C512   C     0.32721   0.29431   0.02266   0.00000  Uiso   1.00
C513   C     0.31493   0.31683   0.16199   0.00000  Uiso   1.00
C514   C     0.30674   0.35177   0.10801   0.00000  Uiso   1.00
C515   C     0.28985   0.41078   0.09313   0.00000  Uiso   1.00
C516   C     0.37232   0.25334   0.98478   0.00000  Uiso   1.00
C517   C     0.39797   0.24144   0.09228   0.00000  Uiso   1.00
C518   C     0.42777   0.24189   0.00641   0.00000  Uiso   1.00
C519   C     0.48091   0.23730   0.93272   0.00000  Uiso   1.00
C520   C     0.34501   0.27713   0.70693   0.00000  Uiso   1.00
C521   C     0.32256   0.24477   0.72207   0.00000  Uiso   1.00
C522   C     0.30713   0.22798   0.57205   0.00000  Uiso   1.00
C523   C     0.28758   0.19878   0.61532   0.00000  Uiso   1.00
C524   C     0.33118   0.30625   0.83604   0.00000  Uiso   1.00
C525   C     0.32301   0.34116   0.78183   0.00000  Uiso   1.00
C526   C     0.31072   0.36373   0.92104   0.00000  Uiso   1.00
C527   C     0.37629   0.26529   0.79815   0.00000  Uiso   1.00
C528   C     0.40605   0.26577   0.71211   0.00000  Uiso   1.00
C529   C     0.43174   0.25386   0.81945   0.00000  Uiso   1.00
H530   H     0.33462   0.24583   0.19584   0.00000  Uiso   1.00
H531   H     0.29599   0.19441   0.09666   0.00000  Uiso   1.00
H532   H     0.31187   0.30758   0.30641   0.00000  Uiso   1.00
H533   H     0.39489   0.23219   0.23670   0.00000  Uiso   1.00
H534   H     0.25489   0.14268   0.90441   0.00000  Uiso   1.00
H535   H     0.28839   0.38130   0.34669   0.00000  Uiso   1.00
H536   H     0.46347   0.22234   0.19969   0.00000  Uiso   1.00
H537   H     0.34810   0.28643   0.56163   0.00000  Uiso   1.00
H538   H     0.31021   0.23723   0.42764   0.00000  Uiso   1.00
H539   H     0.32609   0.35040   0.63740   0.00000  Uiso   1.00
H540   H     0.40911   0.27501   0.56768   0.00000  Uiso   1.00
H541   H     0.26644   0.17743   0.36140   0.00000  Uiso   1.00
H542   H     0.29993   0.41606   0.80369   0.00000  Uiso   1.00
H543   H     0.47501   0.25709   0.65669   0.00000  Uiso   1.00
O544   O     0.23549   0.12697   0.55621   0.00000  Uiso   1.00
O545   O     0.27943   0.44003   0.13648   0.00000  Uiso   1.00
O546   O     0.50913   0.23147   0.94362   0.00000  Uiso   1.00
N547   N     0.26282   0.15760   0.79499   0.00000  Uiso   1.00
N548   N     0.29413   0.38070   0.20850   0.00000  Uiso   1.00
N549   N     0.45781   0.23209   0.07108   0.00000  Uiso   1.00
N550   N     0.26903   0.17630   0.50281   0.00000  Uiso   1.00
N551   N     0.30034   0.39940   0.91631   0.00000  Uiso   1.00
N552   N     0.46402   0.25079   0.77890   0.00000  Uiso   1.00
C553   C     0.66229   0.74487   0.05054   0.00000  Uiso   1.00
C554   C     0.68141   0.76718   0.90871   0.00000  Uiso   1.00
C555   C     0.70095   0.79635   0.95221   0.00000  Uiso   1.00
C556   C     0.71640   0.81318   0.80230   0.00000  Uiso   1.00
C557   C     0.74670   0.84963   0.61046   0.00000  Uiso   1.00
C558   C     0.67279   0.70569   0.02266   0.00000  Uiso   1.00
C559   C     0.68507   0.68317   0.16199   0.00000  Uiso   1.00
C560   C     0.69326   0.64823   0.10801   0.00000  Uiso   1.00
C561   C     0.71015   0.58922   0.09313   0.00000  Uiso   1.00
C562   C     0.62768   0.74666   0.98478   0.00000  Uiso   1.00
C563   C     0.60203   0.75856   0.09228   0.00000  Uiso   1.00
C564   C     0.57223   0.75811   0.00641   0.00000  Uiso   1.00
C565   C     0.51909   0.76270   0.93272   0.00000  Uiso   1.00
C566   C     0.65499   0.72287   0.70693   0.00000  Uiso   1.00
C567   C     0.67744   0.75523   0.72207   0.00000  Uiso   1.00
C568   C     0.69287   0.77202   0.57205   0.00000  Uiso   1.00
C569   C     0.71242   0.80122   0.61532   0.00000  Uiso   1.00
C570   C     0.66882   0.69375   0.83604   0.00000  Uiso   1.00
C571   C     0.67699   0.65884   0.78183   0.00000  Uiso   1.00
C572   C     0.68928   0.63627   0.92104   0.00000  Uiso   1.00
C573   C     0.62371   0.73471   0.79815   0.00000  Uiso   1.00
C574   C     0.59395   0.73423   0.71211   0.00000  Uiso   1.00
C575   C     0.56826   0.74614   0.81945   0.00000  Uiso   1.00
H576   H     0.66538   0.75417   0.19584   0.00000  Uiso   1.00
H577   H     0.70401   0.80559   0.09666   0.00000  Uiso   1.00
H578   H     0.68813   0.69242   0.30641   0.00000  Uiso   1.00
H579   H     0.60511   0.76781   0.23670   0.00000  Uiso   1.00
H580   H     0.74511   0.85732   0.90441   0.00000  Uiso   1.00
H581   H     0.71161   0.61870   0.34669   0.00000  Uiso   1.00
H582   H     0.53653   0.77766   0.19969   0.00000  Uiso   1.00
H583   H     0.65190   0.71357   0.56163   0.00000  Uiso   1.00
H584   H     0.68979   0.76277   0.42764   0.00000  Uiso   1.00
H585   H     0.67391   0.64960   0.63740   0.00000  Uiso   1.00
H586   H     0.59089   0.72499   0.56768   0.00000  Uiso   1.00
H587   H     0.73356   0.82257   0.36140   0.00000  Uiso   1.00
H588   H     0.70007   0.58394   0.80369   0.00000  Uiso   1.00
H589   H     0.52499   0.74291   0.65669   0.00000  Uiso   1.00
O590   O     0.76451   0.87303   0.55621   0.00000  Uiso   1.00
O591   O     0.72057   0.55997   0.13648   0.00000  Uiso   1.00
O592   O     0.49087   0.76853   0.94362   0.00000  Uiso   1.00
N593   N     0.73718   0.84240   0.79499   0.00000  Uiso   1.00
N594   N     0.70587   0.61930   0.20850   0.00000  Uiso   1.00
N595   N     0.54219   0.76791   0.07108   0.00000  Uiso   1.00
N596   N     0.73097   0.82370   0.50281   0.00000  Uiso   1.00
N597   N     0.69966   0.60060   0.91631   0.00000  Uiso   1.00
N598   N     0.53598   0.74921   0.77890   0.00000  Uiso   1.00
C599   C     0.66229   0.24487   0.55054   0.00000  Uiso   1.00
C600   C     0.68141   0.26718   0.40871   0.00000  Uiso   1.00
C601   C     0.70095   0.29635   0.45221   0.00000  Uiso   1.00
C602   C     0.71640   0.31318   0.30230   0.00000  Uiso   1.00
C603   C     0.74670   0.34963   0.11046   0.00000  Uiso   1.00
C604   C     0.67279   0.20569   0.52266   0.00000  Uiso   1.00
C605   C     0.68507   0.18317   0.66199   0.00000  Uiso   1.00
C606   C     0.69326   0.14823   0.60801   0.00000  Uiso   1.00
C607   C     0.71015   0.08922   0.59313   0.00000  Uiso   1.00
C608   C     0.62768   0.24666   0.48478   0.00000  Uiso   1.00
C609   C     0.60203   0.25856   0.59228   0.00000  Uiso   1.00
C610   C     0.57223   0.25811   0.50641   0.00000  Uiso   1.00
C611   C     0.51909   0.26270   0.43272   0.00000  Uiso   1.00
C612   C     0.65499   0.22287   0.20693   0.00000  Uiso   1.00
C613   C     0.67744   0.25523   0.22207   0.00000  Uiso   1.00
C614   C     0.69287   0.27202   0.07205   0.00000  Uiso   1.00
C615   C     0.71242   0.30122   0.11532   0.00000  Uiso   1.00
C616   C     0.66882   0.19375   0.33604   0.00000  Uiso   1.00
C617   C     0.67699   0.15884   0.28183   0.00000  Uiso   1.00
C618   C     0.68928   0.13627   0.42104   0.00000  Uiso   1.00
C619   C     0.62371   0.23471   0.29815   0.00000  Uiso   1.00
C620   C     0.59395   0.23423   0.21211   0.00000  Uiso   1.00
C621   C     0.56826   0.24614   0.31945   0.00000  Uiso   1.00
H622   H     0.66538   0.25417   0.69584   0.00000  Uiso   1.00
H623   H     0.70401   0.30559   0.59666   0.00000  Uiso   1.00
H624   H     0.68813   0.19242   0.80641   0.00000  Uiso   1.00
H625   H     0.60511   0.26781   0.73670   0.00000  Uiso   1.00
H626   H     0.74511   0.35732   0.40441   0.00000  Uiso   1.00
H627   H     0.71161   0.11870   0.84669   0.00000  Uiso   1.00
H628   H     0.53653   0.27766   0.69969   0.00000  Uiso   1.00
H629   H     0.65190   0.21357   0.06163   0.00000  Uiso   1.00
H630   H     0.68979   0.26277   0.92764   0.00000  Uiso   1.00
H631   H     0.67391   0.14960   0.13740   0.00000  Uiso   1.00
H632   H     0.59089   0.22499   0.06768   0.00000  Uiso   1.00
H633   H     0.73356   0.32257   0.86140   0.00000  Uiso   1.00
H634   H     0.70007   0.08394   0.30369   0.00000  Uiso   1.00
H635   H     0.52499   0.24291   0.15669   0.00000  Uiso   1.00
O636   O     0.76451   0.37303   0.05621   0.00000  Uiso   1.00
O637   O     0.72057   0.05997   0.63648   0.00000  Uiso   1.00
O638   O     0.49087   0.26853   0.44362   0.00000  Uiso   1.00
N639   N     0.73718   0.34240   0.29499   0.00000  Uiso   1.00
N640   N     0.70587   0.11930   0.70850   0.00000  Uiso   1.00
N641   N     0.54219   0.26791   0.57108   0.00000  Uiso   1.00
N642   N     0.73097   0.32370   0.00281   0.00000  Uiso   1.00
N643   N     0.69966   0.10060   0.41631   0.00000  Uiso   1.00
N644   N     0.53598   0.24921   0.27890   0.00000  Uiso   1.00
C645   C     0.16229   0.74487   0.55054   0.00000  Uiso   1.00
C646   C     0.18141   0.76718   0.40871   0.00000  Uiso   1.00
C647   C     0.20095   0.79635   0.45221   0.00000  Uiso   1.00
C648   C     0.21640   0.81318   0.30230   0.00000  Uiso   1.00
C649   C     0.24670   0.84963   0.11046   0.00000  Uiso   1.00
C650   C     0.17279   0.70569   0.52266   0.00000  Uiso   1.00
C651   C     0.18507   0.68317   0.66199   0.00000  Uiso   1.00
C652   C     0.19326   0.64823   0.60801   0.00000  Uiso   1.00
C653   C     0.21015   0.58922   0.59313   0.00000  Uiso   1.00
C654   C     0.12768   0.74666   0.48478   0.00000  Uiso   1.00
C655   C     0.10203   0.75856   0.59228   0.00000  Uiso   1.00
C656   C     0.07223   0.75811   0.50641   0.00000  Uiso   1.00
C657   C     0.01909   0.76270   0.43272   0.00000  Uiso   1.00
C658   C     0.15499   0.72287   0.20693   0.00000  Uiso   1.00
C659   C     0.17744   0.75523   0.22207   0.00000  Uiso   1.00
C660   C     0.19287   0.77202   0.07205   0.00000  Uiso   1.00
C661   C     0.21242   0.80122   0.11532   0.00000  Uiso   1.00
C662   C     0.16882   0.69375   0.33604   0.00000  Uiso   1.00
C663   C     0.17699   0.65884   0.28183   0.00000  Uiso   1.00
C664   C     0.18928   0.63627   0.42104   0.00000  Uiso   1.00
C665   C     0.12371   0.73471   0.29815   0.00000  Uiso   1.00
C666   C     0.09395   0.73423   0.21211   0.00000  Uiso   1.00
C667   C     0.06826   0.74614   0.31945   0.00000  Uiso   1.00
H668   H     0.16538   0.75417   0.69584   0.00000  Uiso   1.00
H669   H     0.20401   0.80559   0.59666   0.00000  Uiso   1.00
H670   H     0.18813   0.69242   0.80641   0.00000  Uiso   1.00
H671   H     0.10511   0.76781   0.73670   0.00000  Uiso   1.00
H672   H     0.24511   0.85732   0.40441   0.00000  Uiso   1.00
H673   H     0.21161   0.61870   0.84669   0.00000  Uiso   1.00
H674   H     0.03653   0.77766   0.69969   0.00000  Uiso   1.00
H675   H     0.15190   0.71357   0.06163   0.00000  Uiso   1.00
H676   H     0.18979   0.76277   0.92764   0.00000  Uiso   1.00
H677   H     0.17391   0.64960   0.13740   0.00000  Uiso   1.00
H678   H     0.09089   0.72499   0.06768   0.00000  Uiso   1.00
H679   H     0.23356   0.82257   0.86140   0.00000  Uiso   1.00
H680   H     0.20007   0.58394   0.30369   0.00000  Uiso   1.00
H681   H     0.02499   0.74291   0.15669   0.00000  Uiso   1.00
O682   O     0.26451   0.87303   0.05621   0.00000  Uiso   1.00
O683   O     0.22057   0.55997   0.63648   0.00000  Uiso   1.00
O684   O     0.99087   0.76853   0.44362   0.00000  Uiso   1.00
N685   N     0.23718   0.84240   0.29499   0.00000  Uiso   1.00
N686   N     0.20587   0.61930   0.70850   0.00000  Uiso   1.00
N687   N     0.04219   0.76791   0.57108   0.00000  Uiso   1.00
N688   N     0.23097   0.82370   0.00281   0.00000  Uiso   1.00
N689   N     0.19966   0.60060   0.41631   0.00000  Uiso   1.00
N690   N     0.03598   0.74921   0.27890   0.00000  Uiso   1.00
C691   C     0.16229   0.24487   0.05054   0.00000  Uiso   1.00
C692   C     0.18141   0.26718   0.90871   0.00000  Uiso   1.00
C693   C     0.20095   0.29635   0.95221   0.00000  Uiso   1.00
C694   C     0.21640   0.31318   0.80230   0.00000  Uiso   1.00
C695   C     0.24670   0.34963   0.61046   0.00000  Uiso   1.00
C696   C     0.17279   0.20569   0.02266   0.00000  Uiso   1.00
C697   C     0.18507   0.18317   0.16199   0.00000  Uiso   1.00
C698   C     0.19326   0.14823   0.10801   0.00000  Uiso   1.00
C699   C     0.21015   0.08922   0.09313   0.00000  Uiso   1.00
C700   C     0.12768   0.24666   0.98478   0.00000  Uiso   1.00
C701   C     0.10203   0.25856   0.09228   0.00000  Uiso   1.00
C702   C     0.07223   0.25811   0.00641   0.00000  Uiso   1.00
C703   C     0.01909   0.26270   0.93272   0.00000  Uiso   1.00
C704   C     0.15499   0.22287   0.70693   0.00000  Uiso   1.00
C705   C     0.17744   0.25523   0.72207   0.00000  Uiso   1.00
C706   C     0.19287   0.27202   0.57205   0.00000  Uiso   1.00
C707   C     0.21242   0.30122   0.61532   0.00000  Uiso   1.00
C708   C     0.16882   0.19375   0.83604   0.00000  Uiso   1.00
C709   C     0.17699   0.15884   0.78183   0.00000  Uiso   1.00
C710   C     0.18928   0.13627   0.92104   0.00000  Uiso   1.00
C711   C     0.12371   0.23471   0.79815   0.00000  Uiso   1.00
C712   C     0.09395   0.23423   0.71211   0.00000  Uiso   1.00
C713   C     0.06826   0.24614   0.81945   0.00000  Uiso   1.00
H714   H     0.16538   0.25417   0.19584   0.00000  Uiso   1.00
H715   H     0.20401   0.30559   0.09666   0.00000  Uiso   1.00
H716   H     0.18813   0.19242   0.30641   0.00000  Uiso   1.00
H717   H     0.10511   0.26781   0.23670   0.00000  Uiso   1.00
H718   H     0.24511   0.35732   0.90441   0.00000  Uiso   1.00
H719   H     0.21161   0.11870   0.34669   0.00000  Uiso   1.00
H720   H     0.03653   0.27766   0.19969   0.00000  Uiso   1.00
H721   H     0.15190   0.21357   0.56163   0.00000  Uiso   1.00
H722   H     0.18979   0.26277   0.42764   0.00000  Uiso   1.00
H723   H     0.17391   0.14960   0.63740   0.00000  Uiso   1.00
H724   H     0.09089   0.22499   0.56768   0.00000  Uiso   1.00
H725   H     0.23356   0.32257   0.36140   0.00000  Uiso   1.00
H726   H     0.20007   0.08394   0.80369   0.00000  Uiso   1.00
H727   H     0.02499   0.24291   0.65669   0.00000  Uiso   1.00
O728   O     0.26451   0.37303   0.55621   0.00000  Uiso   1.00
O729   O     0.22057   0.05997   0.13648   0.00000  Uiso   1.00
O730   O     0.99087   0.26853   0.94362   0.00000  Uiso   1.00
N731   N     0.23718   0.34240   0.79499   0.00000  Uiso   1.00
N732   N     0.20587   0.11930   0.20850   0.00000  Uiso   1.00
N733   N     0.04219   0.26791   0.07108   0.00000  Uiso   1.00
N734   N     0.23097   0.32370   0.50281   0.00000  Uiso   1.00
N735   N     0.19966   0.10060   0.91631   0.00000  Uiso   1.00
N736   N     0.03598   0.24921   0.77890   0.00000  Uiso   1.00
