data_job_06904
_audit_creation_date              2018-12-19
_audit_creation_method            'Materials Studio'
_symmetry_space_group_name_H-M    'P1'
_symmetry_Int_Tables_number       1
_symmetry_cell_setting            triclinic
loop_
_symmetry_equiv_pos_as_xyz
  x,y,z
_cell_length_a                    31.4998
_cell_length_b                    56.5336
_cell_length_c                    11.8813
_cell_angle_alpha                 90.0000
_cell_angle_beta                  100.3956
_cell_angle_gamma                 90.0000
loop_
_atom_site_label
_atom_site_type_symbol
_atom_site_fract_x
_atom_site_fract_y
_atom_site_fract_z
_atom_site_U_iso_or_equiv
_atom_site_adp_type
_atom_site_occupancy
C1     C     0.94226   0.74111   0.46753   0.00000  Uiso   1.00
C2     C     0.92817   0.73975   0.58360   0.00000  Uiso   1.00
C3     C     0.93561   0.72092   0.65953   0.00000  Uiso   1.00
C4     C     0.42013   0.22308   0.76130   0.00000  Uiso   1.00
C5     C     0.40160   0.21788   0.93773   0.00000  Uiso   1.00
C6     C     0.90131   0.74566   0.38010   0.00000  Uiso   1.00
C7     C     0.88616   0.73179   0.28491   0.00000  Uiso   1.00
C8     C     0.84807   0.73894   0.21536   0.00000  Uiso   1.00
C9     C     0.78786   0.74291   0.07580   0.00000  Uiso   1.00
C10    C     0.96938   0.76351   0.47022   0.00000  Uiso   1.00
C11    C     0.01148   0.76466   0.45078   0.00000  Uiso   1.00
C12    C     0.03070   0.78684   0.45708   0.00000  Uiso   1.00
C13    C     0.07618   0.81854   0.45744   0.00000  Uiso   1.00
C14    C     0.90154   0.77845   0.51325   0.00000  Uiso   1.00
C15    C     0.90605   0.76003   0.60843   0.00000  Uiso   1.00
C16    C     0.39056   0.26223   0.71012   0.00000  Uiso   1.00
C17    C     0.39798   0.24340   0.78619   0.00000  Uiso   1.00
C18    C     0.87919   0.76594   0.40493   0.00000  Uiso   1.00
C19    C     0.84112   0.77310   0.33550   0.00000  Uiso   1.00
C20    C     0.82592   0.75925   0.24024   0.00000  Uiso   1.00
C21    C     0.94727   0.78379   0.49506   0.00000  Uiso   1.00
C22    C     0.96643   0.80597   0.50138   0.00000  Uiso   1.00
C23    C     0.00854   0.80716   0.48196   0.00000  Uiso   1.00
H24    H     0.95947   0.72532   0.44819   0.00000  Uiso   1.00
H25    H     0.95272   0.70522   0.64028   0.00000  Uiso   1.00
H26    H     0.90329   0.71610   0.26571   0.00000  Uiso   1.00
H27    H     0.02858   0.74896   0.43156   0.00000  Uiso   1.00
H28    H     0.43547   0.19188   0.86417   0.00000  Uiso   1.00
H29    H     0.33124   0.21482   0.07436   0.00000  Uiso   1.00
H30    H     0.09544   0.78412   0.42408   0.00000  Uiso   1.00
H31    H     0.88432   0.79424   0.53259   0.00000  Uiso   1.00
H32    H     0.37345   0.27793   0.72932   0.00000  Uiso   1.00
H33    H     0.82401   0.78880   0.35474   0.00000  Uiso   1.00
H34    H     0.94930   0.82166   0.52060   0.00000  Uiso   1.00
H35    H     0.37113   0.25089   0.93644   0.00000  Uiso   1.00
H36    H     0.76690   0.77383   0.14662   0.00000  Uiso   1.00
H37    H     0.03110   0.84313   0.49635   0.00000  Uiso   1.00
O38    O     0.39749   0.20941   0.02818   0.00000  Uiso   1.00
O39    O     0.26075   0.23950   0.99196   0.00000  Uiso   1.00
O40    O     0.10738   0.83042   0.45080   0.00000  Uiso   1.00
N41    N     0.42183   0.20801   0.85419   0.00000  Uiso   1.00
N42    N     0.82438   0.72945   0.11577   0.00000  Uiso   1.00
N43    N     0.07138   0.79424   0.44271   0.00000  Uiso   1.00
N44    N     0.38721   0.23976   0.89308   0.00000  Uiso   1.00
N45    N     0.78976   0.76120   0.15466   0.00000  Uiso   1.00
N46    N     0.03676   0.82600   0.48159   0.00000  Uiso   1.00
C47    C     0.61524   0.12872   0.31327   0.00000  Uiso   1.00
C48    C     0.61497   0.13770   0.43418   0.00000  Uiso   1.00
C49    C     0.07909   0.63899   0.48664   0.00000  Uiso   1.00
C50    C     0.08555   0.64772   0.59765   0.00000  Uiso   1.00
C51    C     0.57891   0.16058   0.77678   0.00000  Uiso   1.00
C52    C     0.63396   0.14873   0.25132   0.00000  Uiso   1.00
C53    C     0.61403   0.15930   0.15003   0.00000  Uiso   1.00
C54    C     0.63648   0.17731   0.10710   0.00000  Uiso   1.00
C55    C     0.65932   0.20729   0.00231   0.00000  Uiso   1.00
C56    C     0.64838   0.10880   0.32546   0.00000  Uiso   1.00
C57    C     0.64059   0.08578   0.28649   0.00000  Uiso   1.00
C58    C     0.67518   0.07018   0.30596   0.00000  Uiso   1.00
C59    C     0.72042   0.03815   0.31629   0.00000  Uiso   1.00
C60    C     0.69052   0.14193   0.41710   0.00000  Uiso   1.00
C61    C     0.65586   0.14487   0.49057   0.00000  Uiso   1.00
C62    C     0.16238   0.65361   0.60153   0.00000  Uiso   1.00
C63    C     0.12651   0.65491   0.65415   0.00000  Uiso   1.00
C64    C     0.67484   0.15591   0.30771   0.00000  Uiso   1.00
C65    C     0.69733   0.17391   0.26492   0.00000  Uiso   1.00
C66    C     0.67744   0.18450   0.16360   0.00000  Uiso   1.00
C67    C     0.68927   0.11597   0.38186   0.00000  Uiso   1.00
C68    C     0.72388   0.10040   0.40138   0.00000  Uiso   1.00
C69    C     0.71614   0.07737   0.36246   0.00000  Uiso   1.00
H70    H     0.58340   0.12314   0.26935   0.00000  Uiso   1.00
H71    H     0.04745   0.63344   0.44296   0.00000  Uiso   1.00
H72    H     0.58239   0.15374   0.10640   0.00000  Uiso   1.00
H73    H     0.60894   0.08024   0.24285   0.00000  Uiso   1.00
H74    H     0.02561   0.64803   0.66030   0.00000  Uiso   1.00
H75    H     0.59930   0.19083   0.95062   0.00000  Uiso   1.00
H76    H     0.65528   0.03584   0.23834   0.00000  Uiso   1.00
H77    H     0.72236   0.14752   0.46101   0.00000  Uiso   1.00
H78    H     0.19403   0.65916   0.64515   0.00000  Uiso   1.00
H79    H     0.72897   0.17946   0.30858   0.00000  Uiso   1.00
H80    H     0.75552   0.10596   0.44503   0.00000  Uiso   1.00
H81    H     0.64458   0.16891   0.82440   0.00000  Uiso   1.00
H82    H     0.71827   0.21171   0.11471   0.00000  Uiso   1.00
H83    H     0.77425   0.05672   0.40244   0.00000  Uiso   1.00
O84    O     0.56395   0.16569   0.86001   0.00000  Uiso   1.00
O85    O     0.66063   0.22184   0.92893   0.00000  Uiso   1.00
O86    O     0.73407   0.01850   0.30642   0.00000  Uiso   1.00
N87    N     0.05750   0.65134   0.67366   0.00000  Uiso   1.00
N88    N     0.62639   0.19136   0.01016   0.00000  Uiso   1.00
N89    N     0.67873   0.04646   0.27913   0.00000  Uiso   1.00
N90    N     0.12152   0.66257   0.76196   0.00000  Uiso   1.00
N91    N     0.69041   0.20259   0.09846   0.00000  Uiso   1.00
N92    N     0.74275   0.05769   0.36743   0.00000  Uiso   1.00
C93    C     0.31231   0.12049   0.64213   0.00000  Uiso   1.00
C94    C     0.31582   0.11361   0.76758   0.00000  Uiso   1.00
C95    C     0.34309   0.12396   0.85913   0.00000  Uiso   1.00
C96    C     0.34149   0.11514   0.96734   0.00000  Uiso   1.00
C97    C     0.35119   0.10726   0.15970   0.00000  Uiso   1.00
C98    C     0.32096   0.09795   0.57948   0.00000  Uiso   1.00
C99    C     0.35255   0.09513   0.51286   0.00000  Uiso   1.00
C100   C     0.35527   0.07313   0.46273   0.00000  Uiso   1.00
C101   C     0.87294   0.54094   0.36298   0.00000  Uiso   1.00
C102   C     0.26498   0.12657   0.59948   0.00000  Uiso   1.00
C103   C     0.24950   0.14781   0.54965   0.00000  Uiso   1.00
C104   C     0.20509   0.14990   0.51633   0.00000  Uiso   1.00
C105   C     0.13583   0.16215   0.44763   0.00000  Uiso   1.00
C106   C     0.26097   0.08643   0.67152   0.00000  Uiso   1.00
C107   C     0.28793   0.09511   0.78353   0.00000  Uiso   1.00
C108   C     0.28629   0.08628   0.89164   0.00000  Uiso   1.00
C109   C     0.31355   0.09661   0.98334   0.00000  Uiso   1.00
C110   C     0.29308   0.07945   0.59544   0.00000  Uiso   1.00
C111   C     0.29575   0.05745   0.54538   0.00000  Uiso   1.00
C112   C     0.32734   0.05459   0.47871   0.00000  Uiso   1.00
C113   C     0.23709   0.10807   0.61544   0.00000  Uiso   1.00
C114   C     0.19270   0.11013   0.58217   0.00000  Uiso   1.00
C115   C     0.17715   0.13137   0.53231   0.00000  Uiso   1.00
H116   H     0.33402   0.13489   0.62970   0.00000  Uiso   1.00
H117   H     0.36466   0.13827   0.84674   0.00000  Uiso   1.00
H118   H     0.37412   0.10945   0.50052   0.00000  Uiso   1.00
H119   H     0.27108   0.16212   0.53731   0.00000  Uiso   1.00
H120   H     0.38635   0.13385   0.09440   0.00000  Uiso   1.00
H121   H     0.90628   0.57308   0.36435   0.00000  Uiso   1.00
H122   H     0.18901   0.18415   0.44192   0.00000  Uiso   1.00
H123   H     0.23926   0.07203   0.68394   0.00000  Uiso   1.00
H124   H     0.26471   0.07196   0.90397   0.00000  Uiso   1.00
H125   H     0.27417   0.04314   0.55775   0.00000  Uiso   1.00
H126   H     0.17113   0.09581   0.59454   0.00000  Uiso   1.00
H127   H     0.30522   0.08003   0.14085   0.00000  Uiso   1.00
H128   H     0.32515   0.01926   0.41079   0.00000  Uiso   1.00
H129   H     0.10788   0.13033   0.48837   0.00000  Uiso   1.00
O130   O     0.86425   0.60803   0.26138   0.00000  Uiso   1.00
O131   O     0.39039   0.02830   0.30356   0.00000  Uiso   1.00
O132   O     0.10533   0.17402   0.40535   0.00000  Uiso   1.00
N133   N     0.36376   0.12120   0.07514   0.00000  Uiso   1.00
N134   N     0.88240   0.56438   0.39260   0.00000  Uiso   1.00
N135   N     0.17927   0.16822   0.46510   0.00000  Uiso   1.00
N136   N     0.32011   0.09224   0.10014   0.00000  Uiso   1.00
N137   N     0.33874   0.03542   0.41759   0.00000  Uiso   1.00
N138   N     0.13561   0.13926   0.49009   0.00000  Uiso   1.00
C139   C     0.03272   0.26366   0.62914   0.00000  Uiso   1.00
C140   C     0.04524   0.26343   0.51101   0.00000  Uiso   1.00
C141   C     0.03181   0.27964   0.42415   0.00000  Uiso   1.00
C142   C     0.54685   0.77637   0.32237   0.00000  Uiso   1.00
C143   C     0.56213   0.77888   0.14113   0.00000  Uiso   1.00
C144   C     0.07500   0.26426   0.71500   0.00000  Uiso   1.00
C145   C     0.08659   0.28116   0.79967   0.00000  Uiso   1.00
C146   C     0.62668   0.77859   0.86962   0.00000  Uiso   1.00
C147   C     0.68815   0.78238   0.00515   0.00000  Uiso   1.00
C148   C     0.01257   0.23957   0.64338   0.00000  Uiso   1.00
C149   C     0.97169   0.23571   0.66787   0.00000  Uiso   1.00
C150   C     0.95923   0.21235   0.67755   0.00000  Uiso   1.00
C151   C     0.92378   0.17780   0.70187   0.00000  Uiso   1.00
C152   C     0.08329   0.22903   0.60283   0.00000  Uiso   1.00
C153   C     0.07271   0.24462   0.49672   0.00000  Uiso   1.00
C154   C     0.08777   0.24133   0.39504   0.00000  Uiso   1.00
C155   C     0.57437   0.75753   0.30805   0.00000  Uiso   1.00
C156   C     0.10247   0.24545   0.70071   0.00000  Uiso   1.00
C157   C     0.14255   0.24285   0.77056   0.00000  Uiso   1.00
C158   C     0.15420   0.25975   0.85531   0.00000  Uiso   1.00
C159   C     0.04004   0.22076   0.62909   0.00000  Uiso   1.00
C160   C     0.02764   0.19740   0.63875   0.00000  Uiso   1.00
C161   C     0.98674   0.19351   0.66323   0.00000  Uiso   1.00
H162   H     0.01133   0.27830   0.64027   0.00000  Uiso   1.00
H163   H     0.01056   0.29419   0.43525   0.00000  Uiso   1.00
H164   H     0.56533   0.79571   0.81072   0.00000  Uiso   1.00
H165   H     0.95044   0.25027   0.67892   0.00000  Uiso   1.00
H166   H     0.52183   0.80352   0.20166   0.00000  Uiso   1.00
H167   H     0.63731   0.80672   0.99338   0.00000  Uiso   1.00
H168   H     0.39504   0.71089   0.71546   0.00000  Uiso   1.00
H169   H     0.10468   0.21439   0.59170   0.00000  Uiso   1.00
H170   H     0.10902   0.22677   0.38400   0.00000  Uiso   1.00
H171   H     0.16380   0.22829   0.75948   0.00000  Uiso   1.00
H172   H     0.04891   0.18285   0.62768   0.00000  Uiso   1.00
H173   H     0.60175   0.74880   0.16006   0.00000  Uiso   1.00
H174   H     0.21723   0.25200   0.95179   0.00000  Uiso   1.00
H175   H     0.97496   0.15617   0.67387   0.00000  Uiso   1.00
O176   O     0.56297   0.78546   0.04512   0.00000  Uiso   1.00
O177   O     0.71447   0.78966   0.08384   0.00000  Uiso   1.00
O178   O     0.89663   0.16394   0.71922   0.00000  Uiso   1.00
N179   N     0.54003   0.78894   0.22036   0.00000  Uiso   1.00
N180   N     0.64800   0.79194   0.96056   0.00000  Uiso   1.00
N181   N     0.92151   0.20234   0.70077   0.00000  Uiso   1.00
N182   N     0.58304   0.75949   0.19798   0.00000  Uiso   1.00
N183   N     0.69101   0.76249   0.93818   0.00000  Uiso   1.00
N184   N     0.96451   0.17290   0.67839   0.00000  Uiso   1.00
C185   C     0.28678   0.83198   0.74127   0.00000  Uiso   1.00
C186   C     0.28242   0.82555   0.61505   0.00000  Uiso   1.00
C187   C     0.31532   0.82621   0.55162   0.00000  Uiso   1.00
C188   C     0.80480   0.31965   0.43737   0.00000  Uiso   1.00
C189   C     0.80441   0.31071   0.24885   0.00000  Uiso   1.00
C190   C     0.27160   0.81035   0.79967   0.00000  Uiso   1.00
C191   C     0.29541   0.79823   0.89147   0.00000  Uiso   1.00
C192   C     0.27577   0.77888   0.93263   0.00000  Uiso   1.00
C193   C     0.75858   0.24635   0.03078   0.00000  Uiso   1.00
C194   C     0.25341   0.85125   0.74733   0.00000  Uiso   1.00
C195   C     0.26192   0.87353   0.79516   0.00000  Uiso   1.00
C196   C     0.22696   0.88862   0.79228   0.00000  Uiso   1.00
C197   C     0.18152   0.91961   0.80918   0.00000  Uiso   1.00
C198   C     0.20956   0.81916   0.65116   0.00000  Uiso   1.00
C199   C     0.24047   0.81858   0.56612   0.00000  Uiso   1.00
C200   C     0.22989   0.81202   0.45193   0.00000  Uiso   1.00
C201   C     0.76278   0.31268   0.38833   0.00000  Uiso   1.00
C202   C     0.22966   0.80338   0.75073   0.00000  Uiso   1.00
C203   C     0.20998   0.78405   0.79177   0.00000  Uiso   1.00
C204   C     0.23376   0.77190   0.88360   0.00000  Uiso   1.00
C205   C     0.21146   0.84429   0.69839   0.00000  Uiso   1.00
C206   C     0.17649   0.85935   0.69545   0.00000  Uiso   1.00
C207   C     0.18494   0.88165   0.74326   0.00000  Uiso   1.00
H208   H     0.31943   0.83740   0.77938   0.00000  Uiso   1.00
H209   H     0.34778   0.83159   0.58953   0.00000  Uiso   1.00
H210   H     0.32786   0.80362   0.92933   0.00000  Uiso   1.00
H211   H     0.29438   0.87891   0.83302   0.00000  Uiso   1.00
H212   H     0.86072   0.32208   0.35748   0.00000  Uiso   1.00
H213   H     0.31872   0.76311   0.07399   0.00000  Uiso   1.00
H214   H     0.24810   0.92187   0.87092   0.00000  Uiso   1.00
H215   H     0.17691   0.81374   0.61306   0.00000  Uiso   1.00
H216   H     0.19744   0.80664   0.41408   0.00000  Uiso   1.00
H217   H     0.17752   0.77866   0.75388   0.00000  Uiso   1.00
H218   H     0.14404   0.85395   0.65757   0.00000  Uiso   1.00
H219   H     0.73869   0.30182   0.21507   0.00000  Uiso   1.00
H220   H     0.19670   0.74285   0.93159   0.00000  Uiso   1.00
H221   H     0.12608   0.90162   0.72851   0.00000  Uiso   1.00
O222   O     0.81578   0.30770   0.15839   0.00000  Uiso   1.00
O223   O     0.76069   0.23033   0.09844   0.00000  Uiso   1.00
O224   O     0.16804   0.93863   0.83201   0.00000  Uiso   1.00
N225   N     0.82918   0.31829   0.35126   0.00000  Uiso   1.00
N226   N     0.28992   0.76315   0.02115   0.00000  Uiso   1.00
N227   N     0.22390   0.91158   0.83132   0.00000  Uiso   1.00
N228   N     0.76352   0.30739   0.27464   0.00000  Uiso   1.00
N229   N     0.22426   0.75225   0.94452   0.00000  Uiso   1.00
N230   N     0.15824   0.90068   0.75469   0.00000  Uiso   1.00
C231   C     0.47794   0.89668   0.25996   0.00000  Uiso   1.00
C232   C     0.47368   0.89287   0.13134   0.00000  Uiso   1.00
C233   C     0.45800   0.87262   0.07202   0.00000  Uiso   1.00
C234   C     0.45668   0.87262   0.95459   0.00000  Uiso   1.00
C235   C     0.44795   0.86375   0.76339   0.00000  Uiso   1.00
C236   C     0.45243   0.91906   0.27431   0.00000  Uiso   1.00
C237   C     0.41888   0.92082   0.33522   0.00000  Uiso   1.00
C238   C     0.39968   0.94287   0.33814   0.00000  Uiso   1.00
C239   C     0.85797   0.47465   0.36898   0.00000  Uiso   1.00
C240   C     0.52520   0.90277   0.30359   0.00000  Uiso   1.00
C241   C     0.55283   0.89085   0.38913   0.00000  Uiso   1.00
C242   C     0.59489   0.89918   0.41672   0.00000  Uiso   1.00
C243   C     0.66616   0.90568   0.49300   0.00000  Uiso   1.00
C244   C     0.50348   0.93269   0.15688   0.00000  Uiso   1.00
C245   C     0.48756   0.91243   0.07536   0.00000  Uiso   1.00
C246   C     0.48626   0.91246   0.95798   0.00000  Uiso   1.00
C247   C     0.47058   0.89222   0.89850   0.00000  Uiso   1.00
C248   C     0.46630   0.93862   0.21833   0.00000  Uiso   1.00
C249   C     0.44714   0.96066   0.22117   0.00000  Uiso   1.00
C250   C     0.41357   0.96246   0.28206   0.00000  Uiso   1.00
C251   C     0.53907   0.92233   0.24760   0.00000  Uiso   1.00
C252   C     0.58109   0.93069   0.27507   0.00000  Uiso   1.00
C253   C     0.60879   0.91878   0.36063   0.00000  Uiso   1.00
H254   H     0.46713   0.88145   0.30355   0.00000  Uiso   1.00
H255   H     0.44726   0.85749   0.11538   0.00000  Uiso   1.00
H256   H     0.90816   0.40568   0.37854   0.00000  Uiso   1.00
H257   H     0.04209   0.37571   0.43243   0.00000  Uiso   1.00
H258   H     0.43134   0.83956   0.88207   0.00000  Uiso   1.00
H259   H     0.34889   0.94118   0.43699   0.00000  Uiso   1.00
H260   H     0.13130   0.37797   0.55063   0.00000  Uiso   1.00
H261   H     0.51428   0.94792   0.11329   0.00000  Uiso   1.00
H262   H     0.49700   0.92760   0.91467   0.00000  Uiso   1.00
H263   H     0.45789   0.97580   0.17784   0.00000  Uiso   1.00
H264   H     0.59182   0.94582   0.23173   0.00000  Uiso   1.00
H265   H     0.47171   0.89646   0.71916   0.00000  Uiso   1.00
H266   H     0.38925   0.99809   0.27409   0.00000  Uiso   1.00
H267   H     0.67167   0.93488   0.38773   0.00000  Uiso   1.00
O268   O     0.43929   0.85345   0.67339   0.00000  Uiso   1.00
O269   O     0.33112   0.98677   0.40144   0.00000  Uiso   1.00
O270   O     0.70164   0.90385   0.55053   0.00000  Uiso   1.00
N271   N     0.44322   0.85573   0.87099   0.00000  Uiso   1.00
N272   N     0.86613   0.45074   0.38979   0.00000  Uiso   1.00
N273   N     0.63016   0.89166   0.49606   0.00000  Uiso   1.00
N274   N     0.46494   0.88636   0.78333   0.00000  Uiso   1.00
N275   N     0.38785   0.98137   0.30213   0.00000  Uiso   1.00
N276   N     0.65188   0.92228   0.40840   0.00000  Uiso   1.00
C277   C     0.44226   0.24111   0.46753   0.00000  Uiso   1.00
C278   C     0.42817   0.23975   0.58360   0.00000  Uiso   1.00
C279   C     0.43561   0.22092   0.65953   0.00000  Uiso   1.00
C280   C     0.92013   0.72308   0.76130   0.00000  Uiso   1.00
C281   C     0.90160   0.71788   0.93773   0.00000  Uiso   1.00
C282   C     0.40131   0.24566   0.38010   0.00000  Uiso   1.00
C283   C     0.38616   0.23179   0.28491   0.00000  Uiso   1.00
C284   C     0.34807   0.23894   0.21536   0.00000  Uiso   1.00
C285   C     0.28786   0.24291   0.07580   0.00000  Uiso   1.00
C286   C     0.46938   0.26351   0.47022   0.00000  Uiso   1.00
C287   C     0.51148   0.26466   0.45078   0.00000  Uiso   1.00
C288   C     0.53070   0.28684   0.45708   0.00000  Uiso   1.00
C289   C     0.57618   0.31854   0.45744   0.00000  Uiso   1.00
C290   C     0.40154   0.27845   0.51325   0.00000  Uiso   1.00
C291   C     0.40605   0.26003   0.60843   0.00000  Uiso   1.00
C292   C     0.89056   0.76223   0.71012   0.00000  Uiso   1.00
C293   C     0.89798   0.74340   0.78619   0.00000  Uiso   1.00
C294   C     0.37919   0.26594   0.40493   0.00000  Uiso   1.00
C295   C     0.34112   0.27310   0.33550   0.00000  Uiso   1.00
C296   C     0.32592   0.25925   0.24024   0.00000  Uiso   1.00
C297   C     0.44727   0.28379   0.49506   0.00000  Uiso   1.00
C298   C     0.46643   0.30597   0.50138   0.00000  Uiso   1.00
C299   C     0.50854   0.30716   0.48196   0.00000  Uiso   1.00
H300   H     0.45947   0.22532   0.44819   0.00000  Uiso   1.00
H301   H     0.45272   0.20522   0.64028   0.00000  Uiso   1.00
H302   H     0.40329   0.21610   0.26571   0.00000  Uiso   1.00
H303   H     0.52858   0.24896   0.43156   0.00000  Uiso   1.00
H304   H     0.93547   0.69188   0.86417   0.00000  Uiso   1.00
H305   H     0.83124   0.71482   0.07436   0.00000  Uiso   1.00
H306   H     0.59544   0.28412   0.42408   0.00000  Uiso   1.00
H307   H     0.38432   0.29424   0.53259   0.00000  Uiso   1.00
H308   H     0.87345   0.77793   0.72932   0.00000  Uiso   1.00
H309   H     0.32401   0.28880   0.35474   0.00000  Uiso   1.00
H310   H     0.44930   0.32166   0.52060   0.00000  Uiso   1.00
H311   H     0.87113   0.75089   0.93644   0.00000  Uiso   1.00
H312   H     0.26690   0.27383   0.14662   0.00000  Uiso   1.00
H313   H     0.53110   0.34313   0.49635   0.00000  Uiso   1.00
O314   O     0.89749   0.70941   0.02818   0.00000  Uiso   1.00
O315   O     0.76075   0.73950   0.99196   0.00000  Uiso   1.00
O316   O     0.60738   0.33042   0.45080   0.00000  Uiso   1.00
N317   N     0.92183   0.70801   0.85419   0.00000  Uiso   1.00
N318   N     0.32438   0.22945   0.11577   0.00000  Uiso   1.00
N319   N     0.57138   0.29424   0.44271   0.00000  Uiso   1.00
N320   N     0.88721   0.73976   0.89308   0.00000  Uiso   1.00
N321   N     0.28976   0.26120   0.15466   0.00000  Uiso   1.00
N322   N     0.53676   0.32600   0.48159   0.00000  Uiso   1.00
C323   C     0.11524   0.62872   0.31327   0.00000  Uiso   1.00
C324   C     0.11497   0.63770   0.43418   0.00000  Uiso   1.00
C325   C     0.57909   0.13899   0.48664   0.00000  Uiso   1.00
C326   C     0.58555   0.14772   0.59765   0.00000  Uiso   1.00
C327   C     0.07891   0.66058   0.77678   0.00000  Uiso   1.00
C328   C     0.13396   0.64873   0.25132   0.00000  Uiso   1.00
C329   C     0.11403   0.65930   0.15003   0.00000  Uiso   1.00
C330   C     0.13648   0.67731   0.10710   0.00000  Uiso   1.00
C331   C     0.15932   0.70729   0.00231   0.00000  Uiso   1.00
C332   C     0.14838   0.60880   0.32546   0.00000  Uiso   1.00
C333   C     0.14059   0.58578   0.28649   0.00000  Uiso   1.00
C334   C     0.17518   0.57018   0.30596   0.00000  Uiso   1.00
C335   C     0.22042   0.53815   0.31629   0.00000  Uiso   1.00
C336   C     0.19052   0.64193   0.41710   0.00000  Uiso   1.00
C337   C     0.15586   0.64487   0.49057   0.00000  Uiso   1.00
C338   C     0.66238   0.15361   0.60153   0.00000  Uiso   1.00
C339   C     0.62651   0.15491   0.65415   0.00000  Uiso   1.00
C340   C     0.17484   0.65591   0.30771   0.00000  Uiso   1.00
C341   C     0.19733   0.67391   0.26492   0.00000  Uiso   1.00
C342   C     0.17744   0.68450   0.16360   0.00000  Uiso   1.00
C343   C     0.18927   0.61597   0.38186   0.00000  Uiso   1.00
C344   C     0.22388   0.60040   0.40138   0.00000  Uiso   1.00
C345   C     0.21614   0.57737   0.36246   0.00000  Uiso   1.00
H346   H     0.08340   0.62314   0.26935   0.00000  Uiso   1.00
H347   H     0.54745   0.13344   0.44296   0.00000  Uiso   1.00
H348   H     0.08239   0.65374   0.10640   0.00000  Uiso   1.00
H349   H     0.10894   0.58024   0.24285   0.00000  Uiso   1.00
H350   H     0.52561   0.14803   0.66030   0.00000  Uiso   1.00
H351   H     0.09930   0.69083   0.95062   0.00000  Uiso   1.00
H352   H     0.15528   0.53584   0.23834   0.00000  Uiso   1.00
H353   H     0.22236   0.64752   0.46101   0.00000  Uiso   1.00
H354   H     0.69403   0.15916   0.64515   0.00000  Uiso   1.00
H355   H     0.22897   0.67946   0.30858   0.00000  Uiso   1.00
H356   H     0.25552   0.60596   0.44503   0.00000  Uiso   1.00
H357   H     0.14458   0.66891   0.82440   0.00000  Uiso   1.00
H358   H     0.21827   0.71171   0.11471   0.00000  Uiso   1.00
H359   H     0.27425   0.55672   0.40244   0.00000  Uiso   1.00
O360   O     0.06395   0.66569   0.86001   0.00000  Uiso   1.00
O361   O     0.16063   0.72184   0.92893   0.00000  Uiso   1.00
O362   O     0.23407   0.51850   0.30642   0.00000  Uiso   1.00
N363   N     0.55750   0.15134   0.67366   0.00000  Uiso   1.00
N364   N     0.12639   0.69136   0.01016   0.00000  Uiso   1.00
N365   N     0.17873   0.54646   0.27913   0.00000  Uiso   1.00
N366   N     0.62152   0.16257   0.76196   0.00000  Uiso   1.00
N367   N     0.19041   0.70259   0.09846   0.00000  Uiso   1.00
N368   N     0.24275   0.55769   0.36743   0.00000  Uiso   1.00
C369   C     0.81231   0.62049   0.64213   0.00000  Uiso   1.00
C370   C     0.81582   0.61361   0.76758   0.00000  Uiso   1.00
C371   C     0.84309   0.62396   0.85913   0.00000  Uiso   1.00
C372   C     0.84149   0.61514   0.96734   0.00000  Uiso   1.00
C373   C     0.85119   0.60726   0.15970   0.00000  Uiso   1.00
C374   C     0.82096   0.59795   0.57948   0.00000  Uiso   1.00
C375   C     0.85255   0.59513   0.51286   0.00000  Uiso   1.00
C376   C     0.85527   0.57313   0.46273   0.00000  Uiso   1.00
C377   C     0.37294   0.04094   0.36298   0.00000  Uiso   1.00
C378   C     0.76498   0.62657   0.59948   0.00000  Uiso   1.00
C379   C     0.74950   0.64781   0.54965   0.00000  Uiso   1.00
C380   C     0.70509   0.64990   0.51633   0.00000  Uiso   1.00
C381   C     0.63583   0.66215   0.44763   0.00000  Uiso   1.00
C382   C     0.76097   0.58643   0.67152   0.00000  Uiso   1.00
C383   C     0.78793   0.59511   0.78353   0.00000  Uiso   1.00
C384   C     0.78629   0.58628   0.89164   0.00000  Uiso   1.00
C385   C     0.81355   0.59661   0.98334   0.00000  Uiso   1.00
C386   C     0.79308   0.57945   0.59544   0.00000  Uiso   1.00
C387   C     0.79575   0.55745   0.54538   0.00000  Uiso   1.00
C388   C     0.82734   0.55459   0.47871   0.00000  Uiso   1.00
C389   C     0.73709   0.60807   0.61544   0.00000  Uiso   1.00
C390   C     0.69270   0.61013   0.58217   0.00000  Uiso   1.00
C391   C     0.67715   0.63137   0.53231   0.00000  Uiso   1.00
H392   H     0.83402   0.63489   0.62970   0.00000  Uiso   1.00
H393   H     0.86466   0.63827   0.84674   0.00000  Uiso   1.00
H394   H     0.87412   0.60945   0.50052   0.00000  Uiso   1.00
H395   H     0.77108   0.66212   0.53731   0.00000  Uiso   1.00
H396   H     0.88635   0.63385   0.09440   0.00000  Uiso   1.00
H397   H     0.40628   0.07308   0.36435   0.00000  Uiso   1.00
H398   H     0.68901   0.68415   0.44192   0.00000  Uiso   1.00
H399   H     0.73926   0.57203   0.68394   0.00000  Uiso   1.00
H400   H     0.76471   0.57196   0.90397   0.00000  Uiso   1.00
H401   H     0.77417   0.54314   0.55775   0.00000  Uiso   1.00
H402   H     0.67113   0.59581   0.59454   0.00000  Uiso   1.00
H403   H     0.80522   0.58003   0.14085   0.00000  Uiso   1.00
H404   H     0.82515   0.51926   0.41079   0.00000  Uiso   1.00
H405   H     0.60788   0.63033   0.48837   0.00000  Uiso   1.00
O406   O     0.36425   0.10803   0.26138   0.00000  Uiso   1.00
O407   O     0.89039   0.52830   0.30356   0.00000  Uiso   1.00
O408   O     0.60533   0.67402   0.40535   0.00000  Uiso   1.00
N409   N     0.86376   0.62120   0.07514   0.00000  Uiso   1.00
N410   N     0.38240   0.06438   0.39260   0.00000  Uiso   1.00
N411   N     0.67927   0.66822   0.46510   0.00000  Uiso   1.00
N412   N     0.82011   0.59224   0.10014   0.00000  Uiso   1.00
N413   N     0.83874   0.53542   0.41759   0.00000  Uiso   1.00
N414   N     0.63561   0.63926   0.49009   0.00000  Uiso   1.00
C415   C     0.53272   0.76366   0.62914   0.00000  Uiso   1.00
C416   C     0.54524   0.76343   0.51101   0.00000  Uiso   1.00
C417   C     0.53181   0.77964   0.42415   0.00000  Uiso   1.00
C418   C     0.04685   0.27637   0.32237   0.00000  Uiso   1.00
C419   C     0.06213   0.27888   0.14113   0.00000  Uiso   1.00
C420   C     0.57500   0.76426   0.71500   0.00000  Uiso   1.00
C421   C     0.58659   0.78116   0.79967   0.00000  Uiso   1.00
C422   C     0.12668   0.27859   0.86962   0.00000  Uiso   1.00
C423   C     0.18815   0.28238   0.00515   0.00000  Uiso   1.00
C424   C     0.51257   0.73957   0.64338   0.00000  Uiso   1.00
C425   C     0.47169   0.73571   0.66787   0.00000  Uiso   1.00
C426   C     0.45923   0.71235   0.67755   0.00000  Uiso   1.00
C427   C     0.42378   0.67780   0.70187   0.00000  Uiso   1.00
C428   C     0.58329   0.72903   0.60283   0.00000  Uiso   1.00
C429   C     0.57271   0.74462   0.49672   0.00000  Uiso   1.00
C430   C     0.58777   0.74133   0.39504   0.00000  Uiso   1.00
C431   C     0.07437   0.25753   0.30805   0.00000  Uiso   1.00
C432   C     0.60247   0.74545   0.70071   0.00000  Uiso   1.00
C433   C     0.64255   0.74285   0.77056   0.00000  Uiso   1.00
C434   C     0.65420   0.75975   0.85531   0.00000  Uiso   1.00
C435   C     0.54004   0.72076   0.62909   0.00000  Uiso   1.00
C436   C     0.52764   0.69740   0.63875   0.00000  Uiso   1.00
C437   C     0.48674   0.69351   0.66323   0.00000  Uiso   1.00
H438   H     0.51133   0.77830   0.64027   0.00000  Uiso   1.00
H439   H     0.51056   0.79419   0.43525   0.00000  Uiso   1.00
H440   H     0.06533   0.29571   0.81072   0.00000  Uiso   1.00
H441   H     0.45044   0.75027   0.67892   0.00000  Uiso   1.00
H442   H     0.02183   0.30352   0.20166   0.00000  Uiso   1.00
H443   H     0.13731   0.30672   0.99338   0.00000  Uiso   1.00
H444   H     0.89504   0.21089   0.71546   0.00000  Uiso   1.00
H445   H     0.60468   0.71439   0.59170   0.00000  Uiso   1.00
H446   H     0.60902   0.72677   0.38400   0.00000  Uiso   1.00
H447   H     0.66380   0.72829   0.75948   0.00000  Uiso   1.00
H448   H     0.54891   0.68285   0.62768   0.00000  Uiso   1.00
H449   H     0.10175   0.24880   0.16006   0.00000  Uiso   1.00
H450   H     0.71723   0.75200   0.95179   0.00000  Uiso   1.00
H451   H     0.47496   0.65617   0.67387   0.00000  Uiso   1.00
O452   O     0.06297   0.28546   0.04512   0.00000  Uiso   1.00
O453   O     0.21447   0.28966   0.08384   0.00000  Uiso   1.00
O454   O     0.39663   0.66394   0.71922   0.00000  Uiso   1.00
N455   N     0.04003   0.28894   0.22036   0.00000  Uiso   1.00
N456   N     0.14800   0.29194   0.96056   0.00000  Uiso   1.00
N457   N     0.42151   0.70234   0.70077   0.00000  Uiso   1.00
N458   N     0.08304   0.25949   0.19798   0.00000  Uiso   1.00
N459   N     0.19101   0.26249   0.93818   0.00000  Uiso   1.00
N460   N     0.46451   0.67290   0.67839   0.00000  Uiso   1.00
C461   C     0.78678   0.33198   0.74127   0.00000  Uiso   1.00
C462   C     0.78242   0.32555   0.61505   0.00000  Uiso   1.00
C463   C     0.81532   0.32621   0.55162   0.00000  Uiso   1.00
C464   C     0.30480   0.81965   0.43737   0.00000  Uiso   1.00
C465   C     0.30441   0.81071   0.24885   0.00000  Uiso   1.00
C466   C     0.77160   0.31035   0.79967   0.00000  Uiso   1.00
C467   C     0.79541   0.29823   0.89147   0.00000  Uiso   1.00
C468   C     0.77577   0.27888   0.93263   0.00000  Uiso   1.00
C469   C     0.25858   0.74635   0.03078   0.00000  Uiso   1.00
C470   C     0.75341   0.35125   0.74733   0.00000  Uiso   1.00
C471   C     0.76192   0.37353   0.79516   0.00000  Uiso   1.00
C472   C     0.72696   0.38862   0.79228   0.00000  Uiso   1.00
C473   C     0.68152   0.41961   0.80918   0.00000  Uiso   1.00
C474   C     0.70956   0.31916   0.65116   0.00000  Uiso   1.00
C475   C     0.74047   0.31858   0.56612   0.00000  Uiso   1.00
C476   C     0.72989   0.31202   0.45193   0.00000  Uiso   1.00
C477   C     0.26278   0.81268   0.38833   0.00000  Uiso   1.00
C478   C     0.72966   0.30338   0.75073   0.00000  Uiso   1.00
C479   C     0.70998   0.28405   0.79177   0.00000  Uiso   1.00
C480   C     0.73376   0.27190   0.88360   0.00000  Uiso   1.00
C481   C     0.71146   0.34429   0.69839   0.00000  Uiso   1.00
C482   C     0.67649   0.35935   0.69545   0.00000  Uiso   1.00
C483   C     0.68494   0.38165   0.74326   0.00000  Uiso   1.00
H484   H     0.81943   0.33740   0.77938   0.00000  Uiso   1.00
H485   H     0.84778   0.33159   0.58953   0.00000  Uiso   1.00
H486   H     0.82786   0.30362   0.92933   0.00000  Uiso   1.00
H487   H     0.79438   0.37891   0.83302   0.00000  Uiso   1.00
H488   H     0.36072   0.82208   0.35748   0.00000  Uiso   1.00
H489   H     0.81872   0.26311   0.07399   0.00000  Uiso   1.00
H490   H     0.74810   0.42187   0.87092   0.00000  Uiso   1.00
H491   H     0.67691   0.31374   0.61306   0.00000  Uiso   1.00
H492   H     0.69744   0.30664   0.41408   0.00000  Uiso   1.00
H493   H     0.67752   0.27866   0.75388   0.00000  Uiso   1.00
H494   H     0.64404   0.35395   0.65757   0.00000  Uiso   1.00
H495   H     0.23869   0.80182   0.21507   0.00000  Uiso   1.00
H496   H     0.69670   0.24285   0.93159   0.00000  Uiso   1.00
H497   H     0.62608   0.40162   0.72851   0.00000  Uiso   1.00
O498   O     0.31578   0.80770   0.15839   0.00000  Uiso   1.00
O499   O     0.26069   0.73033   0.09844   0.00000  Uiso   1.00
O500   O     0.66804   0.43863   0.83201   0.00000  Uiso   1.00
N501   N     0.32918   0.81829   0.35126   0.00000  Uiso   1.00
N502   N     0.78992   0.26315   0.02115   0.00000  Uiso   1.00
N503   N     0.72390   0.41158   0.83132   0.00000  Uiso   1.00
N504   N     0.26352   0.80739   0.27464   0.00000  Uiso   1.00
N505   N     0.72426   0.25225   0.94452   0.00000  Uiso   1.00
N506   N     0.65824   0.40068   0.75469   0.00000  Uiso   1.00
C507   C     0.97794   0.39668   0.25996   0.00000  Uiso   1.00
C508   C     0.97368   0.39287   0.13134   0.00000  Uiso   1.00
C509   C     0.95800   0.37262   0.07202   0.00000  Uiso   1.00
C510   C     0.95668   0.37262   0.95459   0.00000  Uiso   1.00
C511   C     0.94795   0.36375   0.76339   0.00000  Uiso   1.00
C512   C     0.95243   0.41906   0.27431   0.00000  Uiso   1.00
C513   C     0.91888   0.42082   0.33522   0.00000  Uiso   1.00
C514   C     0.89968   0.44287   0.33814   0.00000  Uiso   1.00
C515   C     0.35797   0.97465   0.36898   0.00000  Uiso   1.00
C516   C     0.02520   0.40277   0.30359   0.00000  Uiso   1.00
C517   C     0.05283   0.39085   0.38913   0.00000  Uiso   1.00
C518   C     0.09489   0.39918   0.41672   0.00000  Uiso   1.00
C519   C     0.16616   0.40568   0.49300   0.00000  Uiso   1.00
C520   C     0.00348   0.43269   0.15688   0.00000  Uiso   1.00
C521   C     0.98756   0.41243   0.07536   0.00000  Uiso   1.00
C522   C     0.98626   0.41246   0.95798   0.00000  Uiso   1.00
C523   C     0.97058   0.39222   0.89850   0.00000  Uiso   1.00
C524   C     0.96630   0.43862   0.21833   0.00000  Uiso   1.00
C525   C     0.94714   0.46066   0.22117   0.00000  Uiso   1.00
C526   C     0.91357   0.46246   0.28206   0.00000  Uiso   1.00
C527   C     0.03907   0.42233   0.24760   0.00000  Uiso   1.00
C528   C     0.08109   0.43069   0.27507   0.00000  Uiso   1.00
C529   C     0.10879   0.41878   0.36063   0.00000  Uiso   1.00
H530   H     0.96713   0.38145   0.30355   0.00000  Uiso   1.00
H531   H     0.94726   0.35749   0.11538   0.00000  Uiso   1.00
H532   H     0.40816   0.90568   0.37854   0.00000  Uiso   1.00
H533   H     0.54209   0.87571   0.43243   0.00000  Uiso   1.00
H534   H     0.93134   0.33956   0.88207   0.00000  Uiso   1.00
H535   H     0.84889   0.44118   0.43699   0.00000  Uiso   1.00
H536   H     0.63130   0.87797   0.55063   0.00000  Uiso   1.00
H537   H     0.01428   0.44792   0.11329   0.00000  Uiso   1.00
H538   H     0.99700   0.42760   0.91467   0.00000  Uiso   1.00
H539   H     0.95789   0.47580   0.17784   0.00000  Uiso   1.00
H540   H     0.09182   0.44582   0.23173   0.00000  Uiso   1.00
H541   H     0.97171   0.39646   0.71916   0.00000  Uiso   1.00
H542   H     0.88925   0.49809   0.27409   0.00000  Uiso   1.00
H543   H     0.17167   0.43488   0.38773   0.00000  Uiso   1.00
O544   O     0.93929   0.35345   0.67339   0.00000  Uiso   1.00
O545   O     0.83112   0.48677   0.40144   0.00000  Uiso   1.00
O546   O     0.20164   0.40385   0.55053   0.00000  Uiso   1.00
N547   N     0.94322   0.35573   0.87099   0.00000  Uiso   1.00
N548   N     0.36613   0.95074   0.38979   0.00000  Uiso   1.00
N549   N     0.13016   0.39166   0.49606   0.00000  Uiso   1.00
N550   N     0.96494   0.38636   0.78333   0.00000  Uiso   1.00
N551   N     0.88785   0.48137   0.30213   0.00000  Uiso   1.00
N552   N     0.15188   0.42228   0.40840   0.00000  Uiso   1.00
C553   C     0.94226   0.25889   0.96753   0.00000  Uiso   1.00
C554   C     0.92817   0.26025   0.08360   0.00000  Uiso   1.00
C555   C     0.93561   0.27908   0.15953   0.00000  Uiso   1.00
C556   C     0.42013   0.77692   0.26130   0.00000  Uiso   1.00
C557   C     0.40160   0.78212   0.43773   0.00000  Uiso   1.00
C558   C     0.90131   0.25434   0.88010   0.00000  Uiso   1.00
C559   C     0.88616   0.26821   0.78491   0.00000  Uiso   1.00
C560   C     0.84807   0.26106   0.71536   0.00000  Uiso   1.00
C561   C     0.78786   0.25709   0.57580   0.00000  Uiso   1.00
C562   C     0.96938   0.23649   0.97022   0.00000  Uiso   1.00
C563   C     0.01148   0.23534   0.95078   0.00000  Uiso   1.00
C564   C     0.03070   0.21316   0.95708   0.00000  Uiso   1.00
C565   C     0.07618   0.18146   0.95744   0.00000  Uiso   1.00
C566   C     0.90154   0.22155   0.01325   0.00000  Uiso   1.00
C567   C     0.90605   0.23997   0.10843   0.00000  Uiso   1.00
C568   C     0.39056   0.73777   0.21012   0.00000  Uiso   1.00
C569   C     0.39798   0.75660   0.28619   0.00000  Uiso   1.00
C570   C     0.87919   0.23406   0.90493   0.00000  Uiso   1.00
C571   C     0.84112   0.22690   0.83550   0.00000  Uiso   1.00
C572   C     0.82592   0.24075   0.74024   0.00000  Uiso   1.00
C573   C     0.94727   0.21621   0.99506   0.00000  Uiso   1.00
C574   C     0.96643   0.19403   0.00138   0.00000  Uiso   1.00
C575   C     0.00854   0.19284   0.98196   0.00000  Uiso   1.00
H576   H     0.95947   0.27468   0.94819   0.00000  Uiso   1.00
H577   H     0.95272   0.29478   0.14028   0.00000  Uiso   1.00
H578   H     0.90329   0.28390   0.76571   0.00000  Uiso   1.00
H579   H     0.02858   0.25104   0.93156   0.00000  Uiso   1.00
H580   H     0.43547   0.80812   0.36417   0.00000  Uiso   1.00
H581   H     0.33124   0.78518   0.57436   0.00000  Uiso   1.00
H582   H     0.09544   0.21588   0.92408   0.00000  Uiso   1.00
H583   H     0.88432   0.20576   0.03259   0.00000  Uiso   1.00
H584   H     0.37345   0.72207   0.22932   0.00000  Uiso   1.00
H585   H     0.82401   0.21120   0.85474   0.00000  Uiso   1.00
H586   H     0.94930   0.17834   0.02060   0.00000  Uiso   1.00
H587   H     0.37113   0.74911   0.43644   0.00000  Uiso   1.00
H588   H     0.76690   0.22617   0.64662   0.00000  Uiso   1.00
H589   H     0.03110   0.15687   0.99635   0.00000  Uiso   1.00
O590   O     0.39749   0.79059   0.52818   0.00000  Uiso   1.00
O591   O     0.26075   0.76050   0.49196   0.00000  Uiso   1.00
O592   O     0.10738   0.16958   0.95080   0.00000  Uiso   1.00
N593   N     0.42183   0.79199   0.35419   0.00000  Uiso   1.00
N594   N     0.82438   0.27055   0.61577   0.00000  Uiso   1.00
N595   N     0.07138   0.20576   0.94271   0.00000  Uiso   1.00
N596   N     0.38721   0.76024   0.39308   0.00000  Uiso   1.00
N597   N     0.78976   0.23880   0.65466   0.00000  Uiso   1.00
N598   N     0.03676   0.17400   0.98159   0.00000  Uiso   1.00
C599   C     0.61524   0.87128   0.81327   0.00000  Uiso   1.00
C600   C     0.61497   0.86230   0.93418   0.00000  Uiso   1.00
C601   C     0.07909   0.36101   0.98664   0.00000  Uiso   1.00
C602   C     0.08555   0.35228   0.09765   0.00000  Uiso   1.00
C603   C     0.57891   0.83942   0.27678   0.00000  Uiso   1.00
C604   C     0.63396   0.85127   0.75132   0.00000  Uiso   1.00
C605   C     0.61403   0.84070   0.65003   0.00000  Uiso   1.00
C606   C     0.63648   0.82269   0.60710   0.00000  Uiso   1.00
C607   C     0.65932   0.79271   0.50231   0.00000  Uiso   1.00
C608   C     0.64838   0.89120   0.82546   0.00000  Uiso   1.00
C609   C     0.64059   0.91422   0.78649   0.00000  Uiso   1.00
C610   C     0.67518   0.92982   0.80596   0.00000  Uiso   1.00
C611   C     0.72042   0.96185   0.81629   0.00000  Uiso   1.00
C612   C     0.69052   0.85807   0.91710   0.00000  Uiso   1.00
C613   C     0.65586   0.85513   0.99057   0.00000  Uiso   1.00
C614   C     0.16238   0.34639   0.10153   0.00000  Uiso   1.00
C615   C     0.12651   0.34509   0.15415   0.00000  Uiso   1.00
C616   C     0.67484   0.84409   0.80771   0.00000  Uiso   1.00
C617   C     0.69733   0.82609   0.76492   0.00000  Uiso   1.00
C618   C     0.67744   0.81550   0.66360   0.00000  Uiso   1.00
C619   C     0.68927   0.88403   0.88186   0.00000  Uiso   1.00
C620   C     0.72388   0.89960   0.90138   0.00000  Uiso   1.00
C621   C     0.71614   0.92263   0.86246   0.00000  Uiso   1.00
H622   H     0.58340   0.87686   0.76935   0.00000  Uiso   1.00
H623   H     0.04745   0.36656   0.94296   0.00000  Uiso   1.00
H624   H     0.58239   0.84626   0.60640   0.00000  Uiso   1.00
H625   H     0.60894   0.91976   0.74285   0.00000  Uiso   1.00
H626   H     0.02561   0.35197   0.16030   0.00000  Uiso   1.00
H627   H     0.59930   0.80917   0.45062   0.00000  Uiso   1.00
H628   H     0.65528   0.96416   0.73834   0.00000  Uiso   1.00
H629   H     0.72236   0.85248   0.96101   0.00000  Uiso   1.00
H630   H     0.19403   0.34084   0.14515   0.00000  Uiso   1.00
H631   H     0.72897   0.82054   0.80858   0.00000  Uiso   1.00
H632   H     0.75552   0.89404   0.94503   0.00000  Uiso   1.00
H633   H     0.64458   0.83109   0.32440   0.00000  Uiso   1.00
H634   H     0.71827   0.78829   0.61471   0.00000  Uiso   1.00
H635   H     0.77425   0.94328   0.90244   0.00000  Uiso   1.00
O636   O     0.56395   0.83431   0.36001   0.00000  Uiso   1.00
O637   O     0.66063   0.77816   0.42893   0.00000  Uiso   1.00
O638   O     0.73407   0.98150   0.80642   0.00000  Uiso   1.00
N639   N     0.05750   0.34866   0.17366   0.00000  Uiso   1.00
N640   N     0.62639   0.80864   0.51016   0.00000  Uiso   1.00
N641   N     0.67873   0.95354   0.77913   0.00000  Uiso   1.00
N642   N     0.12152   0.33743   0.26196   0.00000  Uiso   1.00
N643   N     0.69041   0.79741   0.59846   0.00000  Uiso   1.00
N644   N     0.74275   0.94231   0.86743   0.00000  Uiso   1.00
C645   C     0.31231   0.87951   0.14213   0.00000  Uiso   1.00
C646   C     0.31582   0.88639   0.26758   0.00000  Uiso   1.00
C647   C     0.34309   0.87604   0.35913   0.00000  Uiso   1.00
C648   C     0.34149   0.88486   0.46734   0.00000  Uiso   1.00
C649   C     0.35119   0.89274   0.65970   0.00000  Uiso   1.00
C650   C     0.32096   0.90205   0.07948   0.00000  Uiso   1.00
C651   C     0.35255   0.90487   0.01286   0.00000  Uiso   1.00
C652   C     0.35527   0.92687   0.96273   0.00000  Uiso   1.00
C653   C     0.87294   0.45906   0.86298   0.00000  Uiso   1.00
C654   C     0.26498   0.87343   0.09948   0.00000  Uiso   1.00
C655   C     0.24950   0.85219   0.04965   0.00000  Uiso   1.00
C656   C     0.20509   0.85010   0.01633   0.00000  Uiso   1.00
C657   C     0.13583   0.83785   0.94763   0.00000  Uiso   1.00
C658   C     0.26097   0.91357   0.17152   0.00000  Uiso   1.00
C659   C     0.28793   0.90489   0.28353   0.00000  Uiso   1.00
C660   C     0.28629   0.91372   0.39164   0.00000  Uiso   1.00
C661   C     0.31355   0.90339   0.48334   0.00000  Uiso   1.00
C662   C     0.29308   0.92055   0.09544   0.00000  Uiso   1.00
C663   C     0.29575   0.94255   0.04538   0.00000  Uiso   1.00
C664   C     0.32734   0.94541   0.97871   0.00000  Uiso   1.00
C665   C     0.23709   0.89193   0.11544   0.00000  Uiso   1.00
C666   C     0.19270   0.88987   0.08217   0.00000  Uiso   1.00
C667   C     0.17715   0.86863   0.03231   0.00000  Uiso   1.00
H668   H     0.33402   0.86511   0.12970   0.00000  Uiso   1.00
H669   H     0.36466   0.86173   0.34674   0.00000  Uiso   1.00
H670   H     0.37412   0.89055   0.00052   0.00000  Uiso   1.00
H671   H     0.27108   0.83788   0.03731   0.00000  Uiso   1.00
H672   H     0.38635   0.86615   0.59440   0.00000  Uiso   1.00
H673   H     0.90628   0.42692   0.86435   0.00000  Uiso   1.00
H674   H     0.18901   0.81585   0.94192   0.00000  Uiso   1.00
H675   H     0.23926   0.92797   0.18394   0.00000  Uiso   1.00
H676   H     0.26471   0.92804   0.40397   0.00000  Uiso   1.00
H677   H     0.27417   0.95686   0.05775   0.00000  Uiso   1.00
H678   H     0.17113   0.90419   0.09454   0.00000  Uiso   1.00
H679   H     0.30522   0.91997   0.64085   0.00000  Uiso   1.00
H680   H     0.32515   0.98074   0.91079   0.00000  Uiso   1.00
H681   H     0.10788   0.86967   0.98837   0.00000  Uiso   1.00
O682   O     0.86425   0.39197   0.76138   0.00000  Uiso   1.00
O683   O     0.39039   0.97170   0.80356   0.00000  Uiso   1.00
O684   O     0.10533   0.82598   0.90535   0.00000  Uiso   1.00
N685   N     0.36376   0.87880   0.57514   0.00000  Uiso   1.00
N686   N     0.88240   0.43562   0.89260   0.00000  Uiso   1.00
N687   N     0.17927   0.83178   0.96510   0.00000  Uiso   1.00
N688   N     0.32011   0.90776   0.60014   0.00000  Uiso   1.00
N689   N     0.33874   0.96458   0.91759   0.00000  Uiso   1.00
N690   N     0.13561   0.86074   0.99009   0.00000  Uiso   1.00
C691   C     0.03272   0.73634   0.12914   0.00000  Uiso   1.00
C692   C     0.04524   0.73657   0.01101   0.00000  Uiso   1.00
C693   C     0.03181   0.72036   0.92415   0.00000  Uiso   1.00
C694   C     0.54685   0.22363   0.82237   0.00000  Uiso   1.00
C695   C     0.56213   0.22112   0.64113   0.00000  Uiso   1.00
C696   C     0.07500   0.73574   0.21500   0.00000  Uiso   1.00
C697   C     0.08659   0.71884   0.29967   0.00000  Uiso   1.00
C698   C     0.62668   0.22141   0.36962   0.00000  Uiso   1.00
C699   C     0.68815   0.21762   0.50515   0.00000  Uiso   1.00
C700   C     0.01257   0.76043   0.14338   0.00000  Uiso   1.00
C701   C     0.97169   0.76429   0.16787   0.00000  Uiso   1.00
C702   C     0.95923   0.78765   0.17755   0.00000  Uiso   1.00
C703   C     0.92378   0.82220   0.20187   0.00000  Uiso   1.00
C704   C     0.08329   0.77097   0.10283   0.00000  Uiso   1.00
C705   C     0.07271   0.75538   0.99672   0.00000  Uiso   1.00
C706   C     0.08777   0.75867   0.89504   0.00000  Uiso   1.00
C707   C     0.57437   0.24247   0.80805   0.00000  Uiso   1.00
C708   C     0.10247   0.75455   0.20071   0.00000  Uiso   1.00
C709   C     0.14255   0.75715   0.27056   0.00000  Uiso   1.00
C710   C     0.15420   0.74025   0.35531   0.00000  Uiso   1.00
C711   C     0.04004   0.77924   0.12909   0.00000  Uiso   1.00
C712   C     0.02764   0.80260   0.13875   0.00000  Uiso   1.00
C713   C     0.98674   0.80649   0.16323   0.00000  Uiso   1.00
H714   H     0.01133   0.72170   0.14027   0.00000  Uiso   1.00
H715   H     0.01056   0.70581   0.93525   0.00000  Uiso   1.00
H716   H     0.56533   0.20429   0.31072   0.00000  Uiso   1.00
H717   H     0.95044   0.74973   0.17892   0.00000  Uiso   1.00
H718   H     0.52183   0.19648   0.70166   0.00000  Uiso   1.00
H719   H     0.63731   0.19328   0.49338   0.00000  Uiso   1.00
H720   H     0.39504   0.28911   0.21546   0.00000  Uiso   1.00
H721   H     0.10468   0.78561   0.09170   0.00000  Uiso   1.00
H722   H     0.10902   0.77323   0.88400   0.00000  Uiso   1.00
H723   H     0.16380   0.77171   0.25948   0.00000  Uiso   1.00
H724   H     0.04891   0.81715   0.12768   0.00000  Uiso   1.00
H725   H     0.60175   0.25120   0.66006   0.00000  Uiso   1.00
H726   H     0.21723   0.74800   0.45179   0.00000  Uiso   1.00
H727   H     0.97496   0.84383   0.17387   0.00000  Uiso   1.00
O728   O     0.56297   0.21454   0.54512   0.00000  Uiso   1.00
O729   O     0.71447   0.21034   0.58384   0.00000  Uiso   1.00
O730   O     0.89663   0.83606   0.21922   0.00000  Uiso   1.00
N731   N     0.54003   0.21106   0.72036   0.00000  Uiso   1.00
N732   N     0.64800   0.20806   0.46056   0.00000  Uiso   1.00
N733   N     0.92151   0.79766   0.20077   0.00000  Uiso   1.00
N734   N     0.58304   0.24051   0.69798   0.00000  Uiso   1.00
N735   N     0.69101   0.23751   0.43818   0.00000  Uiso   1.00
N736   N     0.96451   0.82710   0.17839   0.00000  Uiso   1.00
C737   C     0.28678   0.16802   0.24127   0.00000  Uiso   1.00
C738   C     0.28242   0.17445   0.11505   0.00000  Uiso   1.00
C739   C     0.31532   0.17379   0.05162   0.00000  Uiso   1.00
C740   C     0.80480   0.68035   0.93737   0.00000  Uiso   1.00
C741   C     0.80441   0.68929   0.74885   0.00000  Uiso   1.00
C742   C     0.27160   0.18965   0.29967   0.00000  Uiso   1.00
C743   C     0.29541   0.20177   0.39147   0.00000  Uiso   1.00
C744   C     0.27577   0.22112   0.43263   0.00000  Uiso   1.00
C745   C     0.75858   0.75365   0.53078   0.00000  Uiso   1.00
C746   C     0.25341   0.14875   0.24733   0.00000  Uiso   1.00
C747   C     0.26192   0.12647   0.29516   0.00000  Uiso   1.00
C748   C     0.22696   0.11138   0.29228   0.00000  Uiso   1.00
C749   C     0.18152   0.08039   0.30918   0.00000  Uiso   1.00
C750   C     0.20956   0.18084   0.15116   0.00000  Uiso   1.00
C751   C     0.24047   0.18142   0.06612   0.00000  Uiso   1.00
C752   C     0.22989   0.18798   0.95193   0.00000  Uiso   1.00
C753   C     0.76278   0.68732   0.88833   0.00000  Uiso   1.00
C754   C     0.22966   0.19662   0.25073   0.00000  Uiso   1.00
C755   C     0.20998   0.21595   0.29177   0.00000  Uiso   1.00
C756   C     0.23376   0.22810   0.38360   0.00000  Uiso   1.00
C757   C     0.21146   0.15571   0.19839   0.00000  Uiso   1.00
C758   C     0.17649   0.14065   0.19545   0.00000  Uiso   1.00
C759   C     0.18494   0.11835   0.24326   0.00000  Uiso   1.00
H760   H     0.31943   0.16260   0.27938   0.00000  Uiso   1.00
H761   H     0.34778   0.16841   0.08953   0.00000  Uiso   1.00
H762   H     0.32786   0.19638   0.42933   0.00000  Uiso   1.00
H763   H     0.29438   0.12109   0.33302   0.00000  Uiso   1.00
H764   H     0.86072   0.67792   0.85748   0.00000  Uiso   1.00
H765   H     0.31872   0.23689   0.57399   0.00000  Uiso   1.00
H766   H     0.24810   0.07813   0.37092   0.00000  Uiso   1.00
H767   H     0.17691   0.18626   0.11306   0.00000  Uiso   1.00
H768   H     0.19744   0.19336   0.91408   0.00000  Uiso   1.00
H769   H     0.17752   0.22134   0.25388   0.00000  Uiso   1.00
H770   H     0.14404   0.14605   0.15757   0.00000  Uiso   1.00
H771   H     0.73869   0.69818   0.71507   0.00000  Uiso   1.00
H772   H     0.19670   0.25715   0.43159   0.00000  Uiso   1.00
H773   H     0.12608   0.09838   0.22851   0.00000  Uiso   1.00
O774   O     0.81578   0.69230   0.65839   0.00000  Uiso   1.00
O775   O     0.76069   0.76967   0.59844   0.00000  Uiso   1.00
O776   O     0.16804   0.06137   0.33201   0.00000  Uiso   1.00
N777   N     0.82918   0.68171   0.85126   0.00000  Uiso   1.00
N778   N     0.28992   0.23685   0.52115   0.00000  Uiso   1.00
N779   N     0.22390   0.08842   0.33132   0.00000  Uiso   1.00
N780   N     0.76352   0.69261   0.77464   0.00000  Uiso   1.00
N781   N     0.22426   0.24775   0.44452   0.00000  Uiso   1.00
N782   N     0.15824   0.09932   0.25469   0.00000  Uiso   1.00
C783   C     0.47794   0.10332   0.75996   0.00000  Uiso   1.00
C784   C     0.47368   0.10713   0.63134   0.00000  Uiso   1.00
C785   C     0.45800   0.12738   0.57202   0.00000  Uiso   1.00
C786   C     0.45668   0.12738   0.45459   0.00000  Uiso   1.00
C787   C     0.44795   0.13625   0.26339   0.00000  Uiso   1.00
C788   C     0.45243   0.08094   0.77431   0.00000  Uiso   1.00
C789   C     0.41888   0.07918   0.83522   0.00000  Uiso   1.00
C790   C     0.39968   0.05713   0.83814   0.00000  Uiso   1.00
C791   C     0.85797   0.52535   0.86898   0.00000  Uiso   1.00
C792   C     0.52520   0.09723   0.80359   0.00000  Uiso   1.00
C793   C     0.55283   0.10915   0.88913   0.00000  Uiso   1.00
C794   C     0.59489   0.10082   0.91672   0.00000  Uiso   1.00
C795   C     0.66616   0.09432   0.99300   0.00000  Uiso   1.00
C796   C     0.50348   0.06731   0.65688   0.00000  Uiso   1.00
C797   C     0.48756   0.08757   0.57536   0.00000  Uiso   1.00
C798   C     0.48626   0.08754   0.45798   0.00000  Uiso   1.00
C799   C     0.47058   0.10778   0.39850   0.00000  Uiso   1.00
C800   C     0.46630   0.06138   0.71833   0.00000  Uiso   1.00
C801   C     0.44714   0.03934   0.72117   0.00000  Uiso   1.00
C802   C     0.41357   0.03754   0.78206   0.00000  Uiso   1.00
C803   C     0.53907   0.07767   0.74760   0.00000  Uiso   1.00
C804   C     0.58109   0.06931   0.77507   0.00000  Uiso   1.00
C805   C     0.60879   0.08122   0.86063   0.00000  Uiso   1.00
H806   H     0.46713   0.11855   0.80355   0.00000  Uiso   1.00
H807   H     0.44726   0.14251   0.61538   0.00000  Uiso   1.00
H808   H     0.90816   0.59432   0.87854   0.00000  Uiso   1.00
H809   H     0.04209   0.62429   0.93243   0.00000  Uiso   1.00
H810   H     0.43134   0.16044   0.38207   0.00000  Uiso   1.00
H811   H     0.34889   0.05882   0.93699   0.00000  Uiso   1.00
H812   H     0.13130   0.62203   0.05063   0.00000  Uiso   1.00
H813   H     0.51428   0.05208   0.61329   0.00000  Uiso   1.00
H814   H     0.49700   0.07240   0.41467   0.00000  Uiso   1.00
H815   H     0.45789   0.02420   0.67784   0.00000  Uiso   1.00
H816   H     0.59182   0.05418   0.73173   0.00000  Uiso   1.00
H817   H     0.47171   0.10354   0.21916   0.00000  Uiso   1.00
H818   H     0.38925   0.00191   0.77409   0.00000  Uiso   1.00
H819   H     0.67167   0.06512   0.88773   0.00000  Uiso   1.00
O820   O     0.43929   0.14655   0.17339   0.00000  Uiso   1.00
O821   O     0.33112   0.01323   0.90144   0.00000  Uiso   1.00
O822   O     0.70164   0.09615   0.05053   0.00000  Uiso   1.00
N823   N     0.44322   0.14427   0.37099   0.00000  Uiso   1.00
N824   N     0.86613   0.54926   0.88979   0.00000  Uiso   1.00
N825   N     0.63016   0.10834   0.99606   0.00000  Uiso   1.00
N826   N     0.46494   0.11364   0.28333   0.00000  Uiso   1.00
N827   N     0.38785   0.01863   0.80213   0.00000  Uiso   1.00
N828   N     0.65188   0.07772   0.90840   0.00000  Uiso   1.00
C829   C     0.44226   0.75889   0.96753   0.00000  Uiso   1.00
C830   C     0.42817   0.76025   0.08360   0.00000  Uiso   1.00
C831   C     0.43561   0.77908   0.15953   0.00000  Uiso   1.00
C832   C     0.92013   0.27692   0.26130   0.00000  Uiso   1.00
C833   C     0.90160   0.28212   0.43773   0.00000  Uiso   1.00
C834   C     0.40131   0.75434   0.88010   0.00000  Uiso   1.00
C835   C     0.38616   0.76821   0.78491   0.00000  Uiso   1.00
C836   C     0.34807   0.76106   0.71536   0.00000  Uiso   1.00
C837   C     0.28786   0.75709   0.57580   0.00000  Uiso   1.00
C838   C     0.46938   0.73649   0.97022   0.00000  Uiso   1.00
C839   C     0.51148   0.73534   0.95078   0.00000  Uiso   1.00
C840   C     0.53070   0.71316   0.95708   0.00000  Uiso   1.00
C841   C     0.57618   0.68146   0.95744   0.00000  Uiso   1.00
C842   C     0.40154   0.72155   0.01325   0.00000  Uiso   1.00
C843   C     0.40605   0.73997   0.10843   0.00000  Uiso   1.00
C844   C     0.89056   0.23777   0.21012   0.00000  Uiso   1.00
C845   C     0.89798   0.25660   0.28619   0.00000  Uiso   1.00
C846   C     0.37919   0.73406   0.90493   0.00000  Uiso   1.00
C847   C     0.34112   0.72690   0.83550   0.00000  Uiso   1.00
C848   C     0.32592   0.74075   0.74024   0.00000  Uiso   1.00
C849   C     0.44727   0.71621   0.99506   0.00000  Uiso   1.00
C850   C     0.46643   0.69403   0.00138   0.00000  Uiso   1.00
C851   C     0.50854   0.69284   0.98196   0.00000  Uiso   1.00
H852   H     0.45947   0.77468   0.94819   0.00000  Uiso   1.00
H853   H     0.45272   0.79478   0.14028   0.00000  Uiso   1.00
H854   H     0.40329   0.78390   0.76571   0.00000  Uiso   1.00
H855   H     0.52858   0.75104   0.93156   0.00000  Uiso   1.00
H856   H     0.93547   0.30812   0.36417   0.00000  Uiso   1.00
H857   H     0.83124   0.28518   0.57436   0.00000  Uiso   1.00
H858   H     0.59544   0.71588   0.92408   0.00000  Uiso   1.00
H859   H     0.38432   0.70576   0.03259   0.00000  Uiso   1.00
H860   H     0.87345   0.22207   0.22932   0.00000  Uiso   1.00
H861   H     0.32401   0.71120   0.85474   0.00000  Uiso   1.00
H862   H     0.44930   0.67834   0.02060   0.00000  Uiso   1.00
H863   H     0.87113   0.24911   0.43644   0.00000  Uiso   1.00
H864   H     0.26690   0.72617   0.64662   0.00000  Uiso   1.00
H865   H     0.53110   0.65687   0.99635   0.00000  Uiso   1.00
O866   O     0.89749   0.29059   0.52818   0.00000  Uiso   1.00
O867   O     0.76075   0.26050   0.49196   0.00000  Uiso   1.00
O868   O     0.60738   0.66958   0.95080   0.00000  Uiso   1.00
N869   N     0.92183   0.29199   0.35419   0.00000  Uiso   1.00
N870   N     0.32438   0.77055   0.61577   0.00000  Uiso   1.00
N871   N     0.57138   0.70576   0.94271   0.00000  Uiso   1.00
N872   N     0.88721   0.26024   0.39308   0.00000  Uiso   1.00
N873   N     0.28976   0.73880   0.65466   0.00000  Uiso   1.00
N874   N     0.53676   0.67400   0.98159   0.00000  Uiso   1.00
C875   C     0.11524   0.37128   0.81327   0.00000  Uiso   1.00
C876   C     0.11497   0.36230   0.93418   0.00000  Uiso   1.00
C877   C     0.57909   0.86101   0.98664   0.00000  Uiso   1.00
C878   C     0.58555   0.85228   0.09765   0.00000  Uiso   1.00
C879   C     0.07891   0.33942   0.27678   0.00000  Uiso   1.00
C880   C     0.13396   0.35127   0.75132   0.00000  Uiso   1.00
C881   C     0.11403   0.34070   0.65003   0.00000  Uiso   1.00
C882   C     0.13648   0.32269   0.60710   0.00000  Uiso   1.00
C883   C     0.15932   0.29271   0.50231   0.00000  Uiso   1.00
C884   C     0.14838   0.39120   0.82546   0.00000  Uiso   1.00
C885   C     0.14059   0.41422   0.78649   0.00000  Uiso   1.00
C886   C     0.17518   0.42982   0.80596   0.00000  Uiso   1.00
C887   C     0.22042   0.46185   0.81629   0.00000  Uiso   1.00
C888   C     0.19052   0.35807   0.91710   0.00000  Uiso   1.00
C889   C     0.15586   0.35513   0.99057   0.00000  Uiso   1.00
C890   C     0.66238   0.84639   0.10153   0.00000  Uiso   1.00
C891   C     0.62651   0.84509   0.15415   0.00000  Uiso   1.00
C892   C     0.17484   0.34409   0.80771   0.00000  Uiso   1.00
C893   C     0.19733   0.32609   0.76492   0.00000  Uiso   1.00
C894   C     0.17744   0.31550   0.66360   0.00000  Uiso   1.00
C895   C     0.18927   0.38403   0.88186   0.00000  Uiso   1.00
C896   C     0.22388   0.39960   0.90138   0.00000  Uiso   1.00
C897   C     0.21614   0.42263   0.86246   0.00000  Uiso   1.00
H898   H     0.08340   0.37686   0.76935   0.00000  Uiso   1.00
H899   H     0.54745   0.86656   0.94296   0.00000  Uiso   1.00
H900   H     0.08239   0.34626   0.60640   0.00000  Uiso   1.00
H901   H     0.10894   0.41976   0.74285   0.00000  Uiso   1.00
H902   H     0.52561   0.85197   0.16030   0.00000  Uiso   1.00
H903   H     0.09930   0.30917   0.45062   0.00000  Uiso   1.00
H904   H     0.15528   0.46416   0.73834   0.00000  Uiso   1.00
H905   H     0.22236   0.35248   0.96101   0.00000  Uiso   1.00
H906   H     0.69403   0.84084   0.14515   0.00000  Uiso   1.00
H907   H     0.22897   0.32054   0.80858   0.00000  Uiso   1.00
H908   H     0.25552   0.39404   0.94503   0.00000  Uiso   1.00
H909   H     0.14458   0.33109   0.32440   0.00000  Uiso   1.00
H910   H     0.21827   0.28829   0.61471   0.00000  Uiso   1.00
H911   H     0.27425   0.44328   0.90244   0.00000  Uiso   1.00
O912   O     0.06395   0.33431   0.36001   0.00000  Uiso   1.00
O913   O     0.16063   0.27816   0.42893   0.00000  Uiso   1.00
O914   O     0.23407   0.48150   0.80642   0.00000  Uiso   1.00
N915   N     0.55750   0.84866   0.17366   0.00000  Uiso   1.00
N916   N     0.12639   0.30864   0.51016   0.00000  Uiso   1.00
N917   N     0.17873   0.45354   0.77913   0.00000  Uiso   1.00
N918   N     0.62152   0.83743   0.26196   0.00000  Uiso   1.00
N919   N     0.19041   0.29741   0.59846   0.00000  Uiso   1.00
N920   N     0.24275   0.44231   0.86743   0.00000  Uiso   1.00
C921   C     0.81231   0.37951   0.14213   0.00000  Uiso   1.00
C922   C     0.81582   0.38639   0.26758   0.00000  Uiso   1.00
C923   C     0.84309   0.37604   0.35913   0.00000  Uiso   1.00
C924   C     0.84149   0.38486   0.46734   0.00000  Uiso   1.00
C925   C     0.85119   0.39274   0.65970   0.00000  Uiso   1.00
C926   C     0.82096   0.40205   0.07948   0.00000  Uiso   1.00
C927   C     0.85255   0.40487   0.01286   0.00000  Uiso   1.00
C928   C     0.85527   0.42687   0.96273   0.00000  Uiso   1.00
C929   C     0.37294   0.95906   0.86298   0.00000  Uiso   1.00
C930   C     0.76498   0.37343   0.09948   0.00000  Uiso   1.00
C931   C     0.74950   0.35219   0.04965   0.00000  Uiso   1.00
C932   C     0.70509   0.35010   0.01633   0.00000  Uiso   1.00
C933   C     0.63583   0.33785   0.94763   0.00000  Uiso   1.00
C934   C     0.76097   0.41357   0.17152   0.00000  Uiso   1.00
C935   C     0.78793   0.40489   0.28353   0.00000  Uiso   1.00
C936   C     0.78629   0.41372   0.39164   0.00000  Uiso   1.00
C937   C     0.81355   0.40339   0.48334   0.00000  Uiso   1.00
C938   C     0.79308   0.42055   0.09544   0.00000  Uiso   1.00
C939   C     0.79575   0.44255   0.04538   0.00000  Uiso   1.00
C940   C     0.82734   0.44541   0.97871   0.00000  Uiso   1.00
C941   C     0.73709   0.39193   0.11544   0.00000  Uiso   1.00
C942   C     0.69270   0.38987   0.08217   0.00000  Uiso   1.00
C943   C     0.67715   0.36863   0.03231   0.00000  Uiso   1.00
H944   H     0.83402   0.36511   0.12970   0.00000  Uiso   1.00
H945   H     0.86466   0.36173   0.34674   0.00000  Uiso   1.00
H946   H     0.87412   0.39055   0.00052   0.00000  Uiso   1.00
H947   H     0.77108   0.33788   0.03731   0.00000  Uiso   1.00
H948   H     0.88635   0.36615   0.59440   0.00000  Uiso   1.00
H949   H     0.40628   0.92692   0.86435   0.00000  Uiso   1.00
H950   H     0.68901   0.31585   0.94192   0.00000  Uiso   1.00
H951   H     0.73926   0.42797   0.18394   0.00000  Uiso   1.00
H952   H     0.76471   0.42804   0.40397   0.00000  Uiso   1.00
H953   H     0.77417   0.45686   0.05775   0.00000  Uiso   1.00
H954   H     0.67113   0.40419   0.09454   0.00000  Uiso   1.00
H955   H     0.80522   0.41997   0.64085   0.00000  Uiso   1.00
H956   H     0.82515   0.48074   0.91079   0.00000  Uiso   1.00
H957   H     0.60788   0.36967   0.98837   0.00000  Uiso   1.00
O958   O     0.36425   0.89197   0.76138   0.00000  Uiso   1.00
O959   O     0.89039   0.47170   0.80356   0.00000  Uiso   1.00
O960   O     0.60533   0.32598   0.90535   0.00000  Uiso   1.00
N961   N     0.86376   0.37880   0.57514   0.00000  Uiso   1.00
N962   N     0.38240   0.93562   0.89260   0.00000  Uiso   1.00
N963   N     0.67927   0.33178   0.96510   0.00000  Uiso   1.00
N964   N     0.82011   0.40776   0.60014   0.00000  Uiso   1.00
N965   N     0.83874   0.46458   0.91759   0.00000  Uiso   1.00
N966   N     0.63561   0.36074   0.99009   0.00000  Uiso   1.00
C967   C     0.53272   0.23634   0.12914   0.00000  Uiso   1.00
C968   C     0.54524   0.23657   0.01101   0.00000  Uiso   1.00
C969   C     0.53181   0.22036   0.92415   0.00000  Uiso   1.00
C970   C     0.04685   0.72363   0.82237   0.00000  Uiso   1.00
C971   C     0.06213   0.72112   0.64113   0.00000  Uiso   1.00
C972   C     0.57500   0.23574   0.21500   0.00000  Uiso   1.00
C973   C     0.58659   0.21884   0.29967   0.00000  Uiso   1.00
C974   C     0.12668   0.72141   0.36962   0.00000  Uiso   1.00
C975   C     0.18815   0.71762   0.50515   0.00000  Uiso   1.00
C976   C     0.51257   0.26043   0.14338   0.00000  Uiso   1.00
C977   C     0.47169   0.26429   0.16787   0.00000  Uiso   1.00
C978   C     0.45923   0.28765   0.17755   0.00000  Uiso   1.00
C979   C     0.42378   0.32220   0.20187   0.00000  Uiso   1.00
C980   C     0.58329   0.27097   0.10283   0.00000  Uiso   1.00
C981   C     0.57271   0.25538   0.99672   0.00000  Uiso   1.00
C982   C     0.58777   0.25867   0.89504   0.00000  Uiso   1.00
C983   C     0.07437   0.74247   0.80805   0.00000  Uiso   1.00
C984   C     0.60247   0.25455   0.20071   0.00000  Uiso   1.00
C985   C     0.64255   0.25715   0.27056   0.00000  Uiso   1.00
C986   C     0.65420   0.24025   0.35531   0.00000  Uiso   1.00
C987   C     0.54004   0.27924   0.12909   0.00000  Uiso   1.00
C988   C     0.52764   0.30260   0.13875   0.00000  Uiso   1.00
C989   C     0.48674   0.30649   0.16323   0.00000  Uiso   1.00
H990   H     0.51133   0.22170   0.14027   0.00000  Uiso   1.00
H991   H     0.51056   0.20581   0.93525   0.00000  Uiso   1.00
H992   H     0.06533   0.70429   0.31072   0.00000  Uiso   1.00
H993   H     0.45044   0.24973   0.17892   0.00000  Uiso   1.00
H994   H     0.02183   0.69648   0.70166   0.00000  Uiso   1.00
H995   H     0.13731   0.69328   0.49338   0.00000  Uiso   1.00
H996   H     0.89504   0.78911   0.21546   0.00000  Uiso   1.00
H997   H     0.60468   0.28561   0.09170   0.00000  Uiso   1.00
H998   H     0.60902   0.27323   0.88400   0.00000  Uiso   1.00
H999   H     0.66380   0.27171   0.25948   0.00000  Uiso   1.00
H1000  H     0.54891   0.31715   0.12768   0.00000  Uiso   1.00
H1001  H     0.10175   0.75120   0.66006   0.00000  Uiso   1.00
H1002  H     0.71723   0.24800   0.45179   0.00000  Uiso   1.00
H1003  H     0.47496   0.34383   0.17387   0.00000  Uiso   1.00
O1004  O     0.06297   0.71454   0.54512   0.00000  Uiso   1.00
O1005  O     0.21447   0.71034   0.58384   0.00000  Uiso   1.00
O1006  O     0.39663   0.33606   0.21922   0.00000  Uiso   1.00
N1007  N     0.04003   0.71106   0.72036   0.00000  Uiso   1.00
N1008  N     0.14800   0.70806   0.46056   0.00000  Uiso   1.00
N1009  N     0.42151   0.29766   0.20077   0.00000  Uiso   1.00
N1010  N     0.08304   0.74051   0.69798   0.00000  Uiso   1.00
N1011  N     0.19101   0.73751   0.43818   0.00000  Uiso   1.00
N1012  N     0.46451   0.32710   0.17839   0.00000  Uiso   1.00
C1013  C     0.78678   0.66802   0.24127   0.00000  Uiso   1.00
C1014  C     0.78242   0.67445   0.11505   0.00000  Uiso   1.00
C1015  C     0.81532   0.67379   0.05162   0.00000  Uiso   1.00
C1016  C     0.30480   0.18035   0.93737   0.00000  Uiso   1.00
C1017  C     0.30441   0.18929   0.74885   0.00000  Uiso   1.00
C1018  C     0.77160   0.68965   0.29967   0.00000  Uiso   1.00
C1019  C     0.79541   0.70177   0.39147   0.00000  Uiso   1.00
C1020  C     0.77577   0.72112   0.43263   0.00000  Uiso   1.00
C1021  C     0.25858   0.25365   0.53078   0.00000  Uiso   1.00
C1022  C     0.75341   0.64875   0.24733   0.00000  Uiso   1.00
C1023  C     0.76192   0.62647   0.29516   0.00000  Uiso   1.00
C1024  C     0.72696   0.61138   0.29228   0.00000  Uiso   1.00
C1025  C     0.68152   0.58039   0.30918   0.00000  Uiso   1.00
C1026  C     0.70956   0.68084   0.15116   0.00000  Uiso   1.00
C1027  C     0.74047   0.68142   0.06612   0.00000  Uiso   1.00
C1028  C     0.72989   0.68798   0.95193   0.00000  Uiso   1.00
C1029  C     0.26278   0.18732   0.88833   0.00000  Uiso   1.00
C1030  C     0.72966   0.69662   0.25073   0.00000  Uiso   1.00
C1031  C     0.70998   0.71595   0.29177   0.00000  Uiso   1.00
C1032  C     0.73376   0.72810   0.38360   0.00000  Uiso   1.00
C1033  C     0.71146   0.65571   0.19839   0.00000  Uiso   1.00
C1034  C     0.67649   0.64065   0.19545   0.00000  Uiso   1.00
C1035  C     0.68494   0.61835   0.24326   0.00000  Uiso   1.00
H1036  H     0.81943   0.66260   0.27938   0.00000  Uiso   1.00
H1037  H     0.84778   0.66841   0.08953   0.00000  Uiso   1.00
H1038  H     0.82786   0.69638   0.42933   0.00000  Uiso   1.00
H1039  H     0.79438   0.62109   0.33302   0.00000  Uiso   1.00
H1040  H     0.36072   0.17792   0.85748   0.00000  Uiso   1.00
H1041  H     0.81872   0.73689   0.57399   0.00000  Uiso   1.00
H1042  H     0.74810   0.57813   0.37092   0.00000  Uiso   1.00
H1043  H     0.67691   0.68626   0.11306   0.00000  Uiso   1.00
H1044  H     0.69744   0.69336   0.91408   0.00000  Uiso   1.00
H1045  H     0.67752   0.72134   0.25388   0.00000  Uiso   1.00
H1046  H     0.64404   0.64605   0.15757   0.00000  Uiso   1.00
H1047  H     0.23869   0.19818   0.71507   0.00000  Uiso   1.00
H1048  H     0.69670   0.75715   0.43159   0.00000  Uiso   1.00
H1049  H     0.62608   0.59838   0.22851   0.00000  Uiso   1.00
O1050  O     0.31578   0.19230   0.65839   0.00000  Uiso   1.00
O1051  O     0.26069   0.26967   0.59844   0.00000  Uiso   1.00
O1052  O     0.66804   0.56137   0.33201   0.00000  Uiso   1.00
N1053  N     0.32918   0.18171   0.85126   0.00000  Uiso   1.00
N1054  N     0.78992   0.73685   0.52115   0.00000  Uiso   1.00
N1055  N     0.72390   0.58842   0.33132   0.00000  Uiso   1.00
N1056  N     0.26352   0.19261   0.77464   0.00000  Uiso   1.00
N1057  N     0.72426   0.74775   0.44452   0.00000  Uiso   1.00
N1058  N     0.65824   0.59932   0.25469   0.00000  Uiso   1.00
C1059  C     0.97794   0.60332   0.75996   0.00000  Uiso   1.00
C1060  C     0.97368   0.60713   0.63134   0.00000  Uiso   1.00
C1061  C     0.95800   0.62738   0.57202   0.00000  Uiso   1.00
C1062  C     0.95668   0.62738   0.45459   0.00000  Uiso   1.00
C1063  C     0.94795   0.63625   0.26339   0.00000  Uiso   1.00
C1064  C     0.95243   0.58094   0.77431   0.00000  Uiso   1.00
C1065  C     0.91888   0.57918   0.83522   0.00000  Uiso   1.00
C1066  C     0.89968   0.55713   0.83814   0.00000  Uiso   1.00
C1067  C     0.35797   0.02535   0.86898   0.00000  Uiso   1.00
C1068  C     0.02520   0.59723   0.80359   0.00000  Uiso   1.00
C1069  C     0.05283   0.60915   0.88913   0.00000  Uiso   1.00
C1070  C     0.09489   0.60082   0.91672   0.00000  Uiso   1.00
C1071  C     0.16616   0.59432   0.99300   0.00000  Uiso   1.00
C1072  C     0.00348   0.56731   0.65688   0.00000  Uiso   1.00
C1073  C     0.98756   0.58757   0.57536   0.00000  Uiso   1.00
C1074  C     0.98626   0.58754   0.45798   0.00000  Uiso   1.00
C1075  C     0.97058   0.60778   0.39850   0.00000  Uiso   1.00
C1076  C     0.96630   0.56138   0.71833   0.00000  Uiso   1.00
C1077  C     0.94714   0.53934   0.72117   0.00000  Uiso   1.00
C1078  C     0.91357   0.53754   0.78206   0.00000  Uiso   1.00
C1079  C     0.03907   0.57767   0.74760   0.00000  Uiso   1.00
C1080  C     0.08109   0.56931   0.77507   0.00000  Uiso   1.00
C1081  C     0.10879   0.58122   0.86063   0.00000  Uiso   1.00
H1082  H     0.96713   0.61855   0.80355   0.00000  Uiso   1.00
H1083  H     0.94726   0.64251   0.61538   0.00000  Uiso   1.00
H1084  H     0.40816   0.09432   0.87854   0.00000  Uiso   1.00
H1085  H     0.54209   0.12429   0.93243   0.00000  Uiso   1.00
H1086  H     0.93134   0.66044   0.38207   0.00000  Uiso   1.00
H1087  H     0.84889   0.55882   0.93699   0.00000  Uiso   1.00
H1088  H     0.63130   0.12203   0.05063   0.00000  Uiso   1.00
H1089  H     0.01428   0.55208   0.61329   0.00000  Uiso   1.00
H1090  H     0.99700   0.57240   0.41467   0.00000  Uiso   1.00
H1091  H     0.95789   0.52420   0.67784   0.00000  Uiso   1.00
H1092  H     0.09182   0.55418   0.73173   0.00000  Uiso   1.00
H1093  H     0.97171   0.60354   0.21916   0.00000  Uiso   1.00
H1094  H     0.88925   0.50191   0.77409   0.00000  Uiso   1.00
H1095  H     0.17167   0.56512   0.88773   0.00000  Uiso   1.00
O1096  O     0.93929   0.64655   0.17339   0.00000  Uiso   1.00
O1097  O     0.83112   0.51323   0.90144   0.00000  Uiso   1.00
O1098  O     0.20164   0.59615   0.05053   0.00000  Uiso   1.00
N1099  N     0.94322   0.64427   0.37099   0.00000  Uiso   1.00
N1100  N     0.36613   0.04926   0.88979   0.00000  Uiso   1.00
N1101  N     0.13016   0.60834   0.99606   0.00000  Uiso   1.00
N1102  N     0.96494   0.61364   0.28333   0.00000  Uiso   1.00
N1103  N     0.88785   0.51863   0.80213   0.00000  Uiso   1.00
N1104  N     0.15188   0.57772   0.90840   0.00000  Uiso   1.00
