data_job_06498
_audit_creation_date              2018-12-19
_audit_creation_method            'Materials Studio'
_symmetry_space_group_name_H-M    'P1'
_symmetry_Int_Tables_number       1
_symmetry_cell_setting            triclinic
loop_
_symmetry_equiv_pos_as_xyz
  x,y,z
_cell_length_a                    38.2746
_cell_length_b                    22.1363
_cell_length_c                    54.7662
_cell_angle_alpha                 90.0000
_cell_angle_beta                  158.7420
_cell_angle_gamma                 90.0000
loop_
_atom_site_label
_atom_site_type_symbol
_atom_site_fract_x
_atom_site_fract_y
_atom_site_fract_z
_atom_site_U_iso_or_equiv
_atom_site_adp_type
_atom_site_occupancy
C1     C     0.32734   0.42973   0.60341   0.00000  Uiso   1.00
C2     C     0.35185   0.49411   0.61165   0.00000  Uiso   1.00
C3     C     0.44391   0.51816   0.66976   0.00000  Uiso   1.00
C4     C     0.45115   0.57799   0.66710   0.00000  Uiso   1.00
C5     C     0.50167   0.67271   0.68882   0.00000  Uiso   1.00
C6     C     0.25928   0.43553   0.58082   0.00000  Uiso   1.00
C7     C     0.27352   0.41031   0.61301   0.00000  Uiso   1.00
C8     C     0.20282   0.42083   0.58439   0.00000  Uiso   1.00
C9     C     0.10960   0.42456   0.55823   0.00000  Uiso   1.00
C10    C     0.26750   0.40309   0.54372   0.00000  Uiso   1.00
C11    C     0.28863   0.35059   0.54470   0.00000  Uiso   1.00
C12    C     0.22484   0.33379   0.48484   0.00000  Uiso   1.00
C13    C     0.14438   0.28716   0.40107   0.00000  Uiso   1.00
C14    C     0.17647   0.49324   0.49535   0.00000  Uiso   1.00
C15    C     0.26990   0.52860   0.55295   0.00000  Uiso   1.00
C16    C     0.27700   0.58842   0.55020   0.00000  Uiso   1.00
C17    C     0.36906   0.61255   0.60830   0.00000  Uiso   1.00
C18    C     0.17734   0.47002   0.52213   0.00000  Uiso   1.00
C19    C     0.10660   0.48057   0.49345   0.00000  Uiso   1.00
C20    C     0.12073   0.45538   0.52559   0.00000  Uiso   1.00
C21    C     0.18556   0.43759   0.48502   0.00000  Uiso   1.00
C22    C     0.12172   0.42086   0.42514   0.00000  Uiso   1.00
C23    C     0.14275   0.36835   0.42604   0.00000  Uiso   1.00
H24    H     0.39114   0.40288   0.64911   0.00000  Uiso   1.00
H25    H     0.50731   0.49145   0.71517   0.00000  Uiso   1.00
H26    H     0.33694   0.38361   0.65843   0.00000  Uiso   1.00
H27    H     0.35205   0.32391   0.59013   0.00000  Uiso   1.00
H28    H     0.59998   0.60486   0.76254   0.00000  Uiso   1.00
H29    H     0.24071   0.37747   0.64288   0.00000  Uiso   1.00
H30    H     0.77258   0.75157   0.49886   0.00000  Uiso   1.00
H31    H     0.11267   0.52010   0.44965   0.00000  Uiso   1.00
H32    H     0.21357   0.61510   0.50477   0.00000  Uiso   1.00
H33    H     0.04320   0.50727   0.44803   0.00000  Uiso   1.00
H34    H     0.05831   0.44757   0.37973   0.00000  Uiso   1.00
H35    H     0.36156   0.70523   0.59177   0.00000  Uiso   1.00
H36    H     0.00230   0.47783   0.47211   0.00000  Uiso   1.00
H37    H     0.03417   0.35194   0.32809   0.00000  Uiso   1.00
O38    O     0.05217   0.21543   0.71702   0.00000  Uiso   1.00
O39    O     0.08082   0.41709   0.56003   0.00000  Uiso   1.00
O40    O     0.62264   0.75192   0.37108   0.00000  Uiso   1.00
N41    N     0.53002   0.61544   0.71478   0.00000  Uiso   1.00
N42    N     0.19414   0.40285   0.60291   0.00000  Uiso   1.00
N43    N     0.22392   0.28514   0.46827   0.00000  Uiso   1.00
N44    N     0.40173   0.66944   0.62289   0.00000  Uiso   1.00
N45    N     0.06585   0.45685   0.51102   0.00000  Uiso   1.00
N46    N     0.09564   0.33914   0.37638   0.00000  Uiso   1.00
C47    C     0.01809   0.15883   0.62086   0.00000  Uiso   1.00
C48    C     0.08248   0.11408   0.64931   0.00000  Uiso   1.00
C49    C     0.15818   0.08176   0.70879   0.00000  Uiso   1.00
C50    C     0.20836   0.04310   0.72608   0.00000  Uiso   1.00
C51    C     0.81213   0.47456   0.77647   0.00000  Uiso   1.00
C52    C     0.02551   0.21817   0.61168   0.00000  Uiso   1.00
C53    C     0.05332   0.27338   0.63952   0.00000  Uiso   1.00
C54    C     0.05553   0.32234   0.62513   0.00000  Uiso   1.00
C55    C     0.07080   0.41542   0.61707   0.00000  Uiso   1.00
C56    C     0.91509   0.13657   0.55015   0.00000  Uiso   1.00
C57    C     0.35002   0.62318   0.52624   0.00000  Uiso   1.00
C58    C     0.25925   0.60346   0.46003   0.00000  Uiso   1.00
C59    C     0.10306   0.56984   0.35643   0.00000  Uiso   1.00
C60    C     0.97257   0.14764   0.54579   0.00000  Uiso   1.00
C61    C     0.05775   0.10800   0.60854   0.00000  Uiso   1.00
C62    C     0.10782   0.06938   0.62574   0.00000  Uiso   1.00
C63    C     0.18359   0.03700   0.68523   0.00000  Uiso   1.00
C64    C     0.00079   0.21210   0.57091   0.00000  Uiso   1.00
C65    C     0.00296   0.26100   0.55647   0.00000  Uiso   1.00
C66    C     0.03076   0.31626   0.58429   0.00000  Uiso   1.00
C67    C     0.89036   0.13049   0.50938   0.00000  Uiso   1.00
C68    C     0.29967   0.61080   0.44319   0.00000  Uiso   1.00
C69    C     0.23448   0.59737   0.41919   0.00000  Uiso   1.00
H70    H     0.03734   0.16356   0.65260   0.00000  Uiso   1.00
H71    H     0.17730   0.08648   0.74033   0.00000  Uiso   1.00
H72    H     0.07244   0.27807   0.67107   0.00000  Uiso   1.00
H73    H     0.36918   0.62789   0.55781   0.00000  Uiso   1.00
H74    H     0.32159   0.99835   0.81963   0.00000  Uiso   1.00
H75    H     0.10045   0.40233   0.67356   0.00000  Uiso   1.00
H76    H     0.17184   0.58565   0.43473   0.00000  Uiso   1.00
H77    H     0.95332   0.14291   0.51405   0.00000  Uiso   1.00
H78    H     0.08867   0.06468   0.59418   0.00000  Uiso   1.00
H79    H     0.98381   0.25628   0.52491   0.00000  Uiso   1.00
H80    H     0.28056   0.60610   0.41165   0.00000  Uiso   1.00
H81    H     0.74966   0.48066   0.70100   0.00000  Uiso   1.00
H82    H     0.02852   0.38465   0.55494   0.00000  Uiso   1.00
H83    H     0.09992   0.56797   0.31610   0.00000  Uiso   1.00
O84    O     0.37620   0.93844   0.81554   0.00000  Uiso   1.00
O85    O     0.08606   0.46844   0.62390   0.00000  Uiso   1.00
O86    O     0.02374   0.55297   0.31055   0.00000  Uiso   1.00
N87    N     0.78608   0.50491   0.78071   0.00000  Uiso   1.00
N88    N     0.07934   0.38261   0.64416   0.00000  Uiso   1.00
N89    N     0.17862   0.58656   0.42086   0.00000  Uiso   1.00
N90    N     0.74737   0.49540   0.71688   0.00000  Uiso   1.00
N91    N     0.04064   0.37309   0.58032   0.00000  Uiso   1.00
N92    N     0.13991   0.57704   0.35703   0.00000  Uiso   1.00
C93    C     0.11462   0.81818   0.67023   0.00000  Uiso   1.00
C94    C     0.11363   0.80343   0.69678   0.00000  Uiso   1.00
C95    C     0.17380   0.82853   0.75349   0.00000  Uiso   1.00
C96    C     0.16154   0.80907   0.76940   0.00000  Uiso   1.00
C97    C     0.17068   0.79268   0.81665   0.00000  Uiso   1.00
C98    C     0.12931   0.75817   0.66664   0.00000  Uiso   1.00
C99    C     0.20264   0.74522   0.69799   0.00000  Uiso   1.00
C100   C     0.20357   0.68767   0.68852   0.00000  Uiso   1.00
C101   C     0.23700   0.60103   0.68892   0.00000  Uiso   1.00
C102   C     0.01270   0.83867   0.59755   0.00000  Uiso   1.00
C103   C     0.98799   0.89341   0.57080   0.00000  Uiso   1.00
C104   C     0.39075   0.40362   0.50316   0.00000  Uiso   1.00
C105   C     0.24313   0.44198   0.39629   0.00000  Uiso   1.00
C106   C     0.98587   0.73900   0.59767   0.00000  Uiso   1.00
C107   C     0.04370   0.76042   0.65737   0.00000  Uiso   1.00
C108   C     0.03135   0.74092   0.67320   0.00000  Uiso   1.00
C109   C     0.09148   0.76598   0.72992   0.00000  Uiso   1.00
C110   C     0.05938   0.71516   0.62723   0.00000  Uiso   1.00
C111   C     0.06019   0.65761   0.61770   0.00000  Uiso   1.00
C112   C     0.13351   0.64458   0.64903   0.00000  Uiso   1.00
C113   C     0.94277   0.79567   0.55813   0.00000  Uiso   1.00
C114   C     0.84554   0.80580   0.49052   0.00000  Uiso   1.00
C115   C     0.32069   0.36053   0.46367   0.00000  Uiso   1.00
H116   H     0.16907   0.85166   0.70092   0.00000  Uiso   1.00
H117   H     0.22792   0.86181   0.78398   0.00000  Uiso   1.00
H118   H     0.25674   0.77852   0.72848   0.00000  Uiso   1.00
H119   H     0.04213   0.92668   0.60131   0.00000  Uiso   1.00
H120   H     0.26234   0.85407   0.85870   0.00000  Uiso   1.00
H121   H     0.32311   0.67845   0.74166   0.00000  Uiso   1.00
H122   H     0.37055   0.49088   0.47350   0.00000  Uiso   1.00
H123   H     0.93142   0.70551   0.56698   0.00000  Uiso   1.00
H124   H     0.97722   0.70763   0.64269   0.00000  Uiso   1.00
H125   H     0.00606   0.62434   0.58720   0.00000  Uiso   1.00
H126   H     0.79144   0.77250   0.46003   0.00000  Uiso   1.00
H127   H     0.05887   0.72893   0.74403   0.00000  Uiso   1.00
H128   H     0.11964   0.55332   0.62699   0.00000  Uiso   1.00
H129   H     0.16708   0.36575   0.35884   0.00000  Uiso   1.00
O130   O     0.19504   0.79552   0.85360   0.00000  Uiso   1.00
O131   O     0.27476   0.56512   0.70004   0.00000  Uiso   1.00
O132   O     0.18102   0.47502   0.34823   0.00000  Uiso   1.00
N133   N     0.20815   0.82434   0.82131   0.00000  Uiso   1.00
N134   N     0.26498   0.66014   0.71190   0.00000  Uiso   1.00
N135   N     0.34188   0.45223   0.46119   0.00000  Uiso   1.00
N136   N     0.09867   0.75700   0.75961   0.00000  Uiso   1.00
N137   N     0.15550   0.59281   0.65019   0.00000  Uiso   1.00
N138   N     0.23239   0.38490   0.39949   0.00000  Uiso   1.00
C139   C     0.71442   0.55716   0.46450   0.00000  Uiso   1.00
C140   C     0.67236   0.49427   0.44103   0.00000  Uiso   1.00
C141   C     0.57621   0.48117   0.38294   0.00000  Uiso   1.00
C142   C     0.55218   0.42076   0.37036   0.00000  Uiso   1.00
C143   C     0.97625   0.83004   0.32721   0.00000  Uiso   1.00
C144   C     0.76492   0.55528   0.47267   0.00000  Uiso   1.00
C145   C     0.74661   0.59349   0.44120   0.00000  Uiso   1.00
C146   C     0.80052   0.58445   0.45527   0.00000  Uiso   1.00
C147   C     0.86835   0.58848   0.46129   0.00000  Uiso   1.00
C148   C     0.79392   0.56438   0.53528   0.00000  Uiso   1.00
C149   C     0.80001   0.61024   0.55645   0.00000  Uiso   1.00
C150   C     0.87834   0.60886   0.62323   0.00000  Uiso   1.00
C151   C     0.99119   0.62702   0.72645   0.00000  Uiso   1.00
C152   C     0.84273   0.47317   0.54546   0.00000  Uiso   1.00
C153   C     0.74205   0.44865   0.48500   0.00000  Uiso   1.00
C154   C     0.71816   0.38824   0.47251   0.00000  Uiso   1.00
C155   C     0.62200   0.37506   0.41441   0.00000  Uiso   1.00
C156   C     0.83461   0.50966   0.51664   0.00000  Uiso   1.00
C157   C     0.88857   0.50056   0.53077   0.00000  Uiso   1.00
C158   C     0.87034   0.53874   0.49932   0.00000  Uiso   1.00
C159   C     0.86361   0.51875   0.57925   0.00000  Uiso   1.00
C160   C     0.94196   0.51731   0.64602   0.00000  Uiso   1.00
C161   C     0.94816   0.56316   0.66729   0.00000  Uiso   1.00
H162   H     0.66017   0.59268   0.43027   0.00000  Uiso   1.00
H163   H     0.52230   0.51649   0.34892   0.00000  Uiso   1.00
H164   H     0.69269   0.62879   0.40718   0.00000  Uiso   1.00
H165   H     0.74607   0.64554   0.52241   0.00000  Uiso   1.00
H166   H     0.40017   0.41190   0.27811   0.00000  Uiso   1.00
H167   H     0.75946   0.64871   0.40097   0.00000  Uiso   1.00
H168   H     0.87202   0.68402   0.64395   0.00000  Uiso   1.00
H169   H     0.89699   0.43765   0.57970   0.00000  Uiso   1.00
H170   H     0.77211   0.35295   0.50655   0.00000  Uiso   1.00
H171   H     0.94249   0.46525   0.56480   0.00000  Uiso   1.00
H172   H     0.99587   0.48200   0.68003   0.00000  Uiso   1.00
H173   H     0.10292   0.77916   0.40604   0.00000  Uiso   1.00
H174   H     0.96222   0.51598   0.52890   0.00000  Uiso   1.00
H175   H     0.07478   0.55128   0.77189   0.00000  Uiso   1.00
O176   O     0.91511   0.79260   0.29125   0.00000  Uiso   1.00
O177   O     0.88651   0.60330   0.45245   0.00000  Uiso   1.00
O178   O     0.03418   0.64963   0.77123   0.00000  Uiso   1.00
N179   N     0.46503   0.39228   0.31827   0.00000  Uiso   1.00
N180   N     0.80093   0.61368   0.43312   0.00000  Uiso   1.00
N181   N     0.90618   0.64671   0.66030   0.00000  Uiso   1.00
N182   N     0.57413   0.32086   0.38711   0.00000  Uiso   1.00
N183   N     0.91003   0.54226   0.50196   0.00000  Uiso   1.00
N184   N     0.01528   0.57528   0.72914   0.00000  Uiso   1.00
C185   C     0.98153   0.83804   0.40959   0.00000  Uiso   1.00
C186   C     0.91645   0.88265   0.38055   0.00000  Uiso   1.00
C187   C     0.84157   0.91529   0.32138   0.00000  Uiso   1.00
C188   C     0.79055   0.95376   0.30344   0.00000  Uiso   1.00
C189   C     0.18594   0.52217   0.25226   0.00000  Uiso   1.00
C190   C     0.97292   0.77845   0.41778   0.00000  Uiso   1.00
C191   C     0.94553   0.72348   0.38993   0.00000  Uiso   1.00
C192   C     0.94205   0.67422   0.40334   0.00000  Uiso   1.00
C193   C     0.92518   0.58085   0.41001   0.00000  Uiso   1.00
C194   C     0.08438   0.86004   0.48071   0.00000  Uiso   1.00
C195   C     0.65072   0.37365   0.50577   0.00000  Uiso   1.00
C196   C     0.74109   0.39308   0.57216   0.00000  Uiso   1.00
C197   C     0.89728   0.42639   0.67653   0.00000  Uiso   1.00
C198   C     0.02407   0.84831   0.48294   0.00000  Uiso   1.00
C199   C     0.93955   0.88823   0.42039   0.00000  Uiso   1.00
C200   C     0.88863   0.92667   0.40253   0.00000  Uiso   1.00
C201   C     0.81369   0.95936   0.34335   0.00000  Uiso   1.00
C202   C     0.99602   0.78403   0.45762   0.00000  Uiso   1.00
C203   C     0.99258   0.73485   0.47108   0.00000  Uiso   1.00
C204   C     0.96519   0.67982   0.44325   0.00000  Uiso   1.00
C205   C     0.10748   0.86563   0.52055   0.00000  Uiso   1.00
C206   C     0.19777   0.88503   0.58691   0.00000  Uiso   1.00
C207   C     0.76424   0.39868   0.61207   0.00000  Uiso   1.00
H208   H     0.96355   0.83368   0.37858   0.00000  Uiso   1.00
H209   H     0.82371   0.91095   0.29056   0.00000  Uiso   1.00
H210   H     0.92766   0.71917   0.35911   0.00000  Uiso   1.00
H211   H     0.63282   0.36933   0.47493   0.00000  Uiso   1.00
H212   H     0.17884   0.49907   0.21054   0.00000  Uiso   1.00
H213   H     0.89806   0.59467   0.35509   0.00000  Uiso   1.00
H214   H     0.83067   0.41131   0.59932   0.00000  Uiso   1.00
H215   H     0.04205   0.85266   0.51395   0.00000  Uiso   1.00
H216   H     0.90652   0.93098   0.43336   0.00000  Uiso   1.00
H217   H     0.01047   0.73919   0.50191   0.00000  Uiso   1.00
H218   H     0.21562   0.88935   0.61773   0.00000  Uiso   1.00
H219   H     0.24605   0.51532   0.32644   0.00000  Uiso   1.00
H220   H     0.96527   0.61092   0.47099   0.00000  Uiso   1.00
H221   H     0.89788   0.42756   0.71522   0.00000  Uiso   1.00
O222   O     0.12185   0.55835   0.21302   0.00000  Uiso   1.00
O223   O     0.90948   0.52780   0.40268   0.00000  Uiso   1.00
O224   O     0.97704   0.44322   0.72309   0.00000  Uiso   1.00
N225   N     0.21327   0.49215   0.24888   0.00000  Uiso   1.00
N226   N     0.91821   0.61407   0.38402   0.00000  Uiso   1.00
N227   N     0.82267   0.41008   0.61236   0.00000  Uiso   1.00
N228   N     0.24944   0.50090   0.31125   0.00000  Uiso   1.00
N229   N     0.95438   0.62281   0.44638   0.00000  Uiso   1.00
N230   N     0.85884   0.41883   0.67472   0.00000  Uiso   1.00
C231   C     0.88462   0.14987   0.37508   0.00000  Uiso   1.00
C232   C     0.89518   0.16102   0.35461   0.00000  Uiso   1.00
C233   C     0.83900   0.13521   0.29984   0.00000  Uiso   1.00
C234   C     0.86007   0.15120   0.28963   0.00000  Uiso   1.00
C235   C     0.86508   0.16241   0.25127   0.00000  Uiso   1.00
C236   C     0.87009   0.21183   0.37721   0.00000  Uiso   1.00
C237   C     0.79281   0.22872   0.34145   0.00000  Uiso   1.00
C238   C     0.79277   0.28749   0.35028   0.00000  Uiso   1.00
C239   C     0.75886   0.37755   0.34705   0.00000  Uiso   1.00
C240   C     0.98271   0.12769   0.44775   0.00000  Uiso   1.00
C241   C     0.00013   0.07385   0.47131   0.00000  Uiso   1.00
C242   C     0.09491   0.06178   0.53954   0.00000  Uiso   1.00
C243   C     0.73586   0.52121   0.64583   0.00000  Uiso   1.00
C244   C     0.02195   0.22419   0.45437   0.00000  Uiso   1.00
C245   C     0.96977   0.20139   0.39767   0.00000  Uiso   1.00
C246   C     0.99093   0.21743   0.38755   0.00000  Uiso   1.00
C247   C     0.93479   0.19164   0.33278   0.00000  Uiso   1.00
C248   C     0.94467   0.25220   0.42027   0.00000  Uiso   1.00
C249   C     0.94475   0.31095   0.42917   0.00000  Uiso   1.00
C250   C     0.86749   0.32793   0.39343   0.00000  Uiso   1.00
C251   C     0.05730   0.16806   0.49082   0.00000  Uiso   1.00
C252   C     0.15206   0.15608   0.55902   0.00000  Uiso   1.00
C253   C     0.16963   0.10222   0.58268   0.00000  Uiso   1.00
H254   H     0.82655   0.11844   0.34155   0.00000  Uiso   1.00
H255   H     0.78127   0.10397   0.26652   0.00000  Uiso   1.00
H256   H     0.73511   0.19747   0.30813   0.00000  Uiso   1.00
H257   H     0.94239   0.04262   0.43797   0.00000  Uiso   1.00
H258   H     0.76395   0.10574   0.20230   0.00000  Uiso   1.00
H259   H     0.66662   0.30289   0.29007   0.00000  Uiso   1.00
H260   H     0.60372   0.47636   0.56385   0.00000  Uiso   1.00
H261   H     0.08002   0.25562   0.48789   0.00000  Uiso   1.00
H262   H     0.04866   0.24867   0.42089   0.00000  Uiso   1.00
H263   H     0.00248   0.34217   0.46250   0.00000  Uiso   1.00
H264   H     0.20977   0.18732   0.59234   0.00000  Uiso   1.00
H265   H     0.98096   0.22319   0.32759   0.00000  Uiso   1.00
H266   H     0.88363   0.42034   0.41536   0.00000  Uiso   1.00
H267   H     0.82073   0.59381   0.68914   0.00000  Uiso   1.00
O268   O     0.84723   0.15744   0.21821   0.00000  Uiso   1.00
O269   O     0.71954   0.41608   0.33337   0.00000  Uiso   1.00
O270   O     0.79300   0.48768   0.69256   0.00000  Uiso   1.00
N271   N     0.81934   0.13433   0.24099   0.00000  Uiso   1.00
N272   N     0.72833   0.31865   0.32304   0.00000  Uiso   1.00
N273   N     0.63698   0.51338   0.57901   0.00000  Uiso   1.00
N274   N     0.93611   0.19753   0.30841   0.00000  Uiso   1.00
N275   N     0.84511   0.38185   0.39046   0.00000  Uiso   1.00
N276   N     0.75375   0.57658   0.64643   0.00000  Uiso   1.00
C277   C     0.82734   0.92973   0.60341   0.00000  Uiso   1.00
C278   C     0.85185   0.99411   0.61165   0.00000  Uiso   1.00
C279   C     0.94391   0.01816   0.66976   0.00000  Uiso   1.00
C280   C     0.95115   0.07799   0.66710   0.00000  Uiso   1.00
C281   C     0.00167   0.17271   0.68882   0.00000  Uiso   1.00
C282   C     0.75928   0.93553   0.58082   0.00000  Uiso   1.00
C283   C     0.77352   0.91031   0.61301   0.00000  Uiso   1.00
C284   C     0.70282   0.92083   0.58439   0.00000  Uiso   1.00
C285   C     0.60960   0.92456   0.55823   0.00000  Uiso   1.00
C286   C     0.76750   0.90309   0.54372   0.00000  Uiso   1.00
C287   C     0.78863   0.85059   0.54470   0.00000  Uiso   1.00
C288   C     0.72484   0.83379   0.48484   0.00000  Uiso   1.00
C289   C     0.64438   0.78716   0.40107   0.00000  Uiso   1.00
C290   C     0.67647   0.99324   0.49535   0.00000  Uiso   1.00
C291   C     0.76990   0.02860   0.55295   0.00000  Uiso   1.00
C292   C     0.77700   0.08842   0.55020   0.00000  Uiso   1.00
C293   C     0.86906   0.11255   0.60830   0.00000  Uiso   1.00
C294   C     0.67734   0.97002   0.52213   0.00000  Uiso   1.00
C295   C     0.60660   0.98057   0.49345   0.00000  Uiso   1.00
C296   C     0.62073   0.95538   0.52559   0.00000  Uiso   1.00
C297   C     0.68556   0.93759   0.48502   0.00000  Uiso   1.00
C298   C     0.62172   0.92086   0.42514   0.00000  Uiso   1.00
C299   C     0.64275   0.86835   0.42604   0.00000  Uiso   1.00
H300   H     0.89114   0.90288   0.64911   0.00000  Uiso   1.00
H301   H     0.00731   0.99145   0.71517   0.00000  Uiso   1.00
H302   H     0.83694   0.88361   0.65843   0.00000  Uiso   1.00
H303   H     0.85205   0.82391   0.59013   0.00000  Uiso   1.00
H304   H     0.09998   0.10486   0.76254   0.00000  Uiso   1.00
H305   H     0.74071   0.87747   0.64288   0.00000  Uiso   1.00
H306   H     0.27258   0.25157   0.49886   0.00000  Uiso   1.00
H307   H     0.61267   0.02010   0.44965   0.00000  Uiso   1.00
H308   H     0.71357   0.11510   0.50477   0.00000  Uiso   1.00
H309   H     0.54320   0.00727   0.44803   0.00000  Uiso   1.00
H310   H     0.55831   0.94757   0.37973   0.00000  Uiso   1.00
H311   H     0.86156   0.20523   0.59177   0.00000  Uiso   1.00
H312   H     0.50230   0.97783   0.47211   0.00000  Uiso   1.00
H313   H     0.53417   0.85194   0.32809   0.00000  Uiso   1.00
O314   O     0.55217   0.71543   0.71702   0.00000  Uiso   1.00
O315   O     0.58082   0.91709   0.56003   0.00000  Uiso   1.00
O316   O     0.12264   0.25192   0.37108   0.00000  Uiso   1.00
N317   N     0.03002   0.11544   0.71478   0.00000  Uiso   1.00
N318   N     0.69414   0.90285   0.60291   0.00000  Uiso   1.00
N319   N     0.72392   0.78514   0.46827   0.00000  Uiso   1.00
N320   N     0.90173   0.16944   0.62289   0.00000  Uiso   1.00
N321   N     0.56585   0.95685   0.51102   0.00000  Uiso   1.00
N322   N     0.59564   0.83914   0.37638   0.00000  Uiso   1.00
C323   C     0.51809   0.65883   0.62086   0.00000  Uiso   1.00
C324   C     0.58248   0.61408   0.64931   0.00000  Uiso   1.00
C325   C     0.65818   0.58176   0.70879   0.00000  Uiso   1.00
C326   C     0.70836   0.54310   0.72608   0.00000  Uiso   1.00
C327   C     0.31213   0.97456   0.77647   0.00000  Uiso   1.00
C328   C     0.52551   0.71817   0.61168   0.00000  Uiso   1.00
C329   C     0.55332   0.77338   0.63952   0.00000  Uiso   1.00
C330   C     0.55553   0.82234   0.62513   0.00000  Uiso   1.00
C331   C     0.57080   0.91542   0.61707   0.00000  Uiso   1.00
C332   C     0.41509   0.63657   0.55015   0.00000  Uiso   1.00
C333   C     0.85002   0.12318   0.52624   0.00000  Uiso   1.00
C334   C     0.75925   0.10346   0.46003   0.00000  Uiso   1.00
C335   C     0.60306   0.06984   0.35643   0.00000  Uiso   1.00
C336   C     0.47257   0.64764   0.54579   0.00000  Uiso   1.00
C337   C     0.55775   0.60800   0.60854   0.00000  Uiso   1.00
C338   C     0.60782   0.56938   0.62574   0.00000  Uiso   1.00
C339   C     0.68359   0.53700   0.68523   0.00000  Uiso   1.00
C340   C     0.50079   0.71210   0.57091   0.00000  Uiso   1.00
C341   C     0.50296   0.76100   0.55647   0.00000  Uiso   1.00
C342   C     0.53076   0.81626   0.58429   0.00000  Uiso   1.00
C343   C     0.39036   0.63049   0.50938   0.00000  Uiso   1.00
C344   C     0.79967   0.11080   0.44319   0.00000  Uiso   1.00
C345   C     0.73448   0.09737   0.41919   0.00000  Uiso   1.00
H346   H     0.53734   0.66356   0.65260   0.00000  Uiso   1.00
H347   H     0.67730   0.58648   0.74033   0.00000  Uiso   1.00
H348   H     0.57244   0.77807   0.67107   0.00000  Uiso   1.00
H349   H     0.86918   0.12789   0.55781   0.00000  Uiso   1.00
H350   H     0.82159   0.49835   0.81963   0.00000  Uiso   1.00
H351   H     0.60045   0.90233   0.67356   0.00000  Uiso   1.00
H352   H     0.67184   0.08565   0.43473   0.00000  Uiso   1.00
H353   H     0.45332   0.64291   0.51405   0.00000  Uiso   1.00
H354   H     0.58867   0.56468   0.59418   0.00000  Uiso   1.00
H355   H     0.48381   0.75628   0.52491   0.00000  Uiso   1.00
H356   H     0.78056   0.10610   0.41165   0.00000  Uiso   1.00
H357   H     0.24966   0.98066   0.70100   0.00000  Uiso   1.00
H358   H     0.52852   0.88465   0.55494   0.00000  Uiso   1.00
H359   H     0.59992   0.06797   0.31610   0.00000  Uiso   1.00
O360   O     0.87620   0.43844   0.81554   0.00000  Uiso   1.00
O361   O     0.58606   0.96844   0.62390   0.00000  Uiso   1.00
O362   O     0.52374   0.05297   0.31055   0.00000  Uiso   1.00
N363   N     0.28608   0.00491   0.78071   0.00000  Uiso   1.00
N364   N     0.57934   0.88261   0.64416   0.00000  Uiso   1.00
N365   N     0.67862   0.08656   0.42086   0.00000  Uiso   1.00
N366   N     0.24737   0.99540   0.71688   0.00000  Uiso   1.00
N367   N     0.54064   0.87309   0.58032   0.00000  Uiso   1.00
N368   N     0.63991   0.07704   0.35703   0.00000  Uiso   1.00
C369   C     0.61462   0.31818   0.67023   0.00000  Uiso   1.00
C370   C     0.61363   0.30343   0.69678   0.00000  Uiso   1.00
C371   C     0.67380   0.32853   0.75349   0.00000  Uiso   1.00
C372   C     0.66154   0.30907   0.76940   0.00000  Uiso   1.00
C373   C     0.67068   0.29268   0.81665   0.00000  Uiso   1.00
C374   C     0.62931   0.25817   0.66664   0.00000  Uiso   1.00
C375   C     0.70264   0.24522   0.69799   0.00000  Uiso   1.00
C376   C     0.70357   0.18767   0.68852   0.00000  Uiso   1.00
C377   C     0.73700   0.10103   0.68892   0.00000  Uiso   1.00
C378   C     0.51270   0.33867   0.59755   0.00000  Uiso   1.00
C379   C     0.48799   0.39341   0.57080   0.00000  Uiso   1.00
C380   C     0.89075   0.90362   0.50316   0.00000  Uiso   1.00
C381   C     0.74313   0.94198   0.39629   0.00000  Uiso   1.00
C382   C     0.48587   0.23900   0.59767   0.00000  Uiso   1.00
C383   C     0.54370   0.26042   0.65737   0.00000  Uiso   1.00
C384   C     0.53135   0.24092   0.67320   0.00000  Uiso   1.00
C385   C     0.59148   0.26598   0.72992   0.00000  Uiso   1.00
C386   C     0.55938   0.21516   0.62723   0.00000  Uiso   1.00
C387   C     0.56019   0.15761   0.61770   0.00000  Uiso   1.00
C388   C     0.63351   0.14458   0.64903   0.00000  Uiso   1.00
C389   C     0.44277   0.29567   0.55813   0.00000  Uiso   1.00
C390   C     0.34554   0.30580   0.49052   0.00000  Uiso   1.00
C391   C     0.82069   0.86053   0.46367   0.00000  Uiso   1.00
H392   H     0.66907   0.35166   0.70092   0.00000  Uiso   1.00
H393   H     0.72792   0.36181   0.78398   0.00000  Uiso   1.00
H394   H     0.75674   0.27852   0.72848   0.00000  Uiso   1.00
H395   H     0.54213   0.42668   0.60131   0.00000  Uiso   1.00
H396   H     0.76234   0.35407   0.85870   0.00000  Uiso   1.00
H397   H     0.82311   0.17845   0.74166   0.00000  Uiso   1.00
H398   H     0.87055   0.99088   0.47350   0.00000  Uiso   1.00
H399   H     0.43142   0.20551   0.56698   0.00000  Uiso   1.00
H400   H     0.47722   0.20763   0.64269   0.00000  Uiso   1.00
H401   H     0.50606   0.12434   0.58720   0.00000  Uiso   1.00
H402   H     0.29144   0.27250   0.46003   0.00000  Uiso   1.00
H403   H     0.55887   0.22893   0.74403   0.00000  Uiso   1.00
H404   H     0.61964   0.05332   0.62699   0.00000  Uiso   1.00
H405   H     0.66708   0.86575   0.35884   0.00000  Uiso   1.00
O406   O     0.69504   0.29552   0.85360   0.00000  Uiso   1.00
O407   O     0.77476   0.06512   0.70004   0.00000  Uiso   1.00
O408   O     0.68102   0.97502   0.34823   0.00000  Uiso   1.00
N409   N     0.70815   0.32434   0.82131   0.00000  Uiso   1.00
N410   N     0.76498   0.16014   0.71190   0.00000  Uiso   1.00
N411   N     0.84188   0.95223   0.46119   0.00000  Uiso   1.00
N412   N     0.59867   0.25700   0.75961   0.00000  Uiso   1.00
N413   N     0.65550   0.09281   0.65019   0.00000  Uiso   1.00
N414   N     0.73239   0.88490   0.39949   0.00000  Uiso   1.00
C415   C     0.21442   0.05716   0.46450   0.00000  Uiso   1.00
C416   C     0.17236   0.99427   0.44103   0.00000  Uiso   1.00
C417   C     0.07621   0.98117   0.38294   0.00000  Uiso   1.00
C418   C     0.05218   0.92076   0.37036   0.00000  Uiso   1.00
C419   C     0.47625   0.33004   0.32721   0.00000  Uiso   1.00
C420   C     0.26492   0.05528   0.47267   0.00000  Uiso   1.00
C421   C     0.24661   0.09349   0.44120   0.00000  Uiso   1.00
C422   C     0.30052   0.08445   0.45527   0.00000  Uiso   1.00
C423   C     0.36835   0.08848   0.46129   0.00000  Uiso   1.00
C424   C     0.29392   0.06438   0.53528   0.00000  Uiso   1.00
C425   C     0.30001   0.11024   0.55645   0.00000  Uiso   1.00
C426   C     0.37834   0.10886   0.62323   0.00000  Uiso   1.00
C427   C     0.49119   0.12702   0.72645   0.00000  Uiso   1.00
C428   C     0.34273   0.97317   0.54546   0.00000  Uiso   1.00
C429   C     0.24205   0.94865   0.48500   0.00000  Uiso   1.00
C430   C     0.21816   0.88824   0.47251   0.00000  Uiso   1.00
C431   C     0.12200   0.87506   0.41441   0.00000  Uiso   1.00
C432   C     0.33461   0.00966   0.51664   0.00000  Uiso   1.00
C433   C     0.38857   0.00056   0.53077   0.00000  Uiso   1.00
C434   C     0.37034   0.03874   0.49932   0.00000  Uiso   1.00
C435   C     0.36361   0.01875   0.57925   0.00000  Uiso   1.00
C436   C     0.44196   0.01731   0.64602   0.00000  Uiso   1.00
C437   C     0.44816   0.06316   0.66729   0.00000  Uiso   1.00
H438   H     0.16017   0.09268   0.43027   0.00000  Uiso   1.00
H439   H     0.02230   0.01649   0.34892   0.00000  Uiso   1.00
H440   H     0.19269   0.12879   0.40718   0.00000  Uiso   1.00
H441   H     0.24607   0.14554   0.52241   0.00000  Uiso   1.00
H442   H     0.90017   0.91190   0.27811   0.00000  Uiso   1.00
H443   H     0.25946   0.14871   0.40097   0.00000  Uiso   1.00
H444   H     0.37202   0.18402   0.64395   0.00000  Uiso   1.00
H445   H     0.39699   0.93765   0.57970   0.00000  Uiso   1.00
H446   H     0.27211   0.85295   0.50655   0.00000  Uiso   1.00
H447   H     0.44249   0.96525   0.56480   0.00000  Uiso   1.00
H448   H     0.49587   0.98200   0.68003   0.00000  Uiso   1.00
H449   H     0.60292   0.27916   0.40604   0.00000  Uiso   1.00
H450   H     0.46222   0.01598   0.52890   0.00000  Uiso   1.00
H451   H     0.57478   0.05128   0.77189   0.00000  Uiso   1.00
O452   O     0.41511   0.29260   0.29125   0.00000  Uiso   1.00
O453   O     0.38651   0.10330   0.45245   0.00000  Uiso   1.00
O454   O     0.53418   0.14963   0.77123   0.00000  Uiso   1.00
N455   N     0.96503   0.89228   0.31827   0.00000  Uiso   1.00
N456   N     0.30093   0.11368   0.43312   0.00000  Uiso   1.00
N457   N     0.40618   0.14671   0.66030   0.00000  Uiso   1.00
N458   N     0.07413   0.82086   0.38711   0.00000  Uiso   1.00
N459   N     0.41003   0.04226   0.50196   0.00000  Uiso   1.00
N460   N     0.51528   0.07528   0.72914   0.00000  Uiso   1.00
C461   C     0.48153   0.33804   0.40959   0.00000  Uiso   1.00
C462   C     0.41645   0.38265   0.38055   0.00000  Uiso   1.00
C463   C     0.34157   0.41529   0.32138   0.00000  Uiso   1.00
C464   C     0.29055   0.45376   0.30344   0.00000  Uiso   1.00
C465   C     0.68594   0.02217   0.25226   0.00000  Uiso   1.00
C466   C     0.47292   0.27845   0.41778   0.00000  Uiso   1.00
C467   C     0.44553   0.22348   0.38993   0.00000  Uiso   1.00
C468   C     0.44205   0.17422   0.40334   0.00000  Uiso   1.00
C469   C     0.42518   0.08085   0.41001   0.00000  Uiso   1.00
C470   C     0.58438   0.36004   0.48071   0.00000  Uiso   1.00
C471   C     0.15072   0.87365   0.50577   0.00000  Uiso   1.00
C472   C     0.24109   0.89308   0.57216   0.00000  Uiso   1.00
C473   C     0.39728   0.92639   0.67653   0.00000  Uiso   1.00
C474   C     0.52407   0.34831   0.48294   0.00000  Uiso   1.00
C475   C     0.43955   0.38823   0.42039   0.00000  Uiso   1.00
C476   C     0.38863   0.42667   0.40253   0.00000  Uiso   1.00
C477   C     0.31369   0.45936   0.34335   0.00000  Uiso   1.00
C478   C     0.49602   0.28403   0.45762   0.00000  Uiso   1.00
C479   C     0.49258   0.23485   0.47108   0.00000  Uiso   1.00
C480   C     0.46519   0.17982   0.44325   0.00000  Uiso   1.00
C481   C     0.60748   0.36563   0.52055   0.00000  Uiso   1.00
C482   C     0.69777   0.38503   0.58691   0.00000  Uiso   1.00
C483   C     0.26424   0.89868   0.61207   0.00000  Uiso   1.00
H484   H     0.46355   0.33368   0.37858   0.00000  Uiso   1.00
H485   H     0.32371   0.41095   0.29056   0.00000  Uiso   1.00
H486   H     0.42766   0.21917   0.35911   0.00000  Uiso   1.00
H487   H     0.13282   0.86933   0.47493   0.00000  Uiso   1.00
H488   H     0.67884   0.99907   0.21054   0.00000  Uiso   1.00
H489   H     0.39806   0.09467   0.35509   0.00000  Uiso   1.00
H490   H     0.33067   0.91131   0.59932   0.00000  Uiso   1.00
H491   H     0.54205   0.35266   0.51395   0.00000  Uiso   1.00
H492   H     0.40652   0.43098   0.43336   0.00000  Uiso   1.00
H493   H     0.51047   0.23919   0.50191   0.00000  Uiso   1.00
H494   H     0.71562   0.38935   0.61773   0.00000  Uiso   1.00
H495   H     0.74605   0.01532   0.32644   0.00000  Uiso   1.00
H496   H     0.46527   0.11092   0.47099   0.00000  Uiso   1.00
H497   H     0.39788   0.92756   0.71522   0.00000  Uiso   1.00
O498   O     0.62185   0.05835   0.21302   0.00000  Uiso   1.00
O499   O     0.40948   0.02780   0.40268   0.00000  Uiso   1.00
O500   O     0.47704   0.94322   0.72309   0.00000  Uiso   1.00
N501   N     0.71327   0.99215   0.24888   0.00000  Uiso   1.00
N502   N     0.41821   0.11407   0.38402   0.00000  Uiso   1.00
N503   N     0.32267   0.91008   0.61236   0.00000  Uiso   1.00
N504   N     0.74944   0.00090   0.31125   0.00000  Uiso   1.00
N505   N     0.45438   0.12281   0.44638   0.00000  Uiso   1.00
N506   N     0.35884   0.91883   0.67472   0.00000  Uiso   1.00
C507   C     0.38462   0.64987   0.37508   0.00000  Uiso   1.00
C508   C     0.39518   0.66102   0.35461   0.00000  Uiso   1.00
C509   C     0.33900   0.63521   0.29984   0.00000  Uiso   1.00
C510   C     0.36007   0.65120   0.28963   0.00000  Uiso   1.00
C511   C     0.36508   0.66241   0.25127   0.00000  Uiso   1.00
C512   C     0.37009   0.71183   0.37721   0.00000  Uiso   1.00
C513   C     0.29281   0.72872   0.34145   0.00000  Uiso   1.00
C514   C     0.29277   0.78749   0.35028   0.00000  Uiso   1.00
C515   C     0.25886   0.87755   0.34705   0.00000  Uiso   1.00
C516   C     0.48271   0.62769   0.44775   0.00000  Uiso   1.00
C517   C     0.50013   0.57385   0.47131   0.00000  Uiso   1.00
C518   C     0.59491   0.56178   0.53954   0.00000  Uiso   1.00
C519   C     0.23586   0.02121   0.64583   0.00000  Uiso   1.00
C520   C     0.52195   0.72419   0.45437   0.00000  Uiso   1.00
C521   C     0.46977   0.70139   0.39767   0.00000  Uiso   1.00
C522   C     0.49093   0.71743   0.38755   0.00000  Uiso   1.00
C523   C     0.43479   0.69164   0.33278   0.00000  Uiso   1.00
C524   C     0.44467   0.75220   0.42027   0.00000  Uiso   1.00
C525   C     0.44475   0.81095   0.42917   0.00000  Uiso   1.00
C526   C     0.36749   0.82793   0.39343   0.00000  Uiso   1.00
C527   C     0.55730   0.66806   0.49082   0.00000  Uiso   1.00
C528   C     0.65206   0.65608   0.55902   0.00000  Uiso   1.00
C529   C     0.66963   0.60222   0.58268   0.00000  Uiso   1.00
H530   H     0.32655   0.61844   0.34155   0.00000  Uiso   1.00
H531   H     0.28127   0.60397   0.26652   0.00000  Uiso   1.00
H532   H     0.23511   0.69747   0.30813   0.00000  Uiso   1.00
H533   H     0.44239   0.54262   0.43797   0.00000  Uiso   1.00
H534   H     0.26395   0.60574   0.20230   0.00000  Uiso   1.00
H535   H     0.16662   0.80289   0.29007   0.00000  Uiso   1.00
H536   H     0.10372   0.97636   0.56385   0.00000  Uiso   1.00
H537   H     0.58002   0.75562   0.48789   0.00000  Uiso   1.00
H538   H     0.54866   0.74867   0.42089   0.00000  Uiso   1.00
H539   H     0.50248   0.84217   0.46250   0.00000  Uiso   1.00
H540   H     0.70977   0.68732   0.59234   0.00000  Uiso   1.00
H541   H     0.48096   0.72319   0.32759   0.00000  Uiso   1.00
H542   H     0.38363   0.92034   0.41536   0.00000  Uiso   1.00
H543   H     0.32073   0.09381   0.68914   0.00000  Uiso   1.00
O544   O     0.34723   0.65744   0.21821   0.00000  Uiso   1.00
O545   O     0.21954   0.91608   0.33337   0.00000  Uiso   1.00
O546   O     0.29300   0.98768   0.69256   0.00000  Uiso   1.00
N547   N     0.31934   0.63433   0.24099   0.00000  Uiso   1.00
N548   N     0.22833   0.81865   0.32304   0.00000  Uiso   1.00
N549   N     0.13698   0.01338   0.57901   0.00000  Uiso   1.00
N550   N     0.43611   0.69753   0.30841   0.00000  Uiso   1.00
N551   N     0.34511   0.88185   0.39046   0.00000  Uiso   1.00
N552   N     0.25375   0.07658   0.64643   0.00000  Uiso   1.00
C553   C     0.32734   0.57027   0.10341   0.00000  Uiso   1.00
C554   C     0.35185   0.50589   0.11165   0.00000  Uiso   1.00
C555   C     0.44391   0.48184   0.16976   0.00000  Uiso   1.00
C556   C     0.45115   0.42201   0.16710   0.00000  Uiso   1.00
C557   C     0.50167   0.32729   0.18882   0.00000  Uiso   1.00
C558   C     0.25928   0.56447   0.08082   0.00000  Uiso   1.00
C559   C     0.27352   0.58969   0.11301   0.00000  Uiso   1.00
C560   C     0.20282   0.57917   0.08439   0.00000  Uiso   1.00
C561   C     0.10960   0.57544   0.05823   0.00000  Uiso   1.00
C562   C     0.26750   0.59691   0.04372   0.00000  Uiso   1.00
C563   C     0.28863   0.64941   0.04470   0.00000  Uiso   1.00
C564   C     0.22484   0.66621   0.98484   0.00000  Uiso   1.00
C565   C     0.14438   0.71284   0.90107   0.00000  Uiso   1.00
C566   C     0.17647   0.50676   0.99535   0.00000  Uiso   1.00
C567   C     0.26990   0.47140   0.05295   0.00000  Uiso   1.00
C568   C     0.27700   0.41158   0.05020   0.00000  Uiso   1.00
C569   C     0.36906   0.38745   0.10830   0.00000  Uiso   1.00
C570   C     0.17734   0.52998   0.02213   0.00000  Uiso   1.00
C571   C     0.10660   0.51943   0.99345   0.00000  Uiso   1.00
C572   C     0.12073   0.54462   0.02559   0.00000  Uiso   1.00
C573   C     0.18556   0.56241   0.98502   0.00000  Uiso   1.00
C574   C     0.12172   0.57914   0.92514   0.00000  Uiso   1.00
C575   C     0.14275   0.63165   0.92604   0.00000  Uiso   1.00
H576   H     0.39114   0.59712   0.14911   0.00000  Uiso   1.00
H577   H     0.50731   0.50855   0.21517   0.00000  Uiso   1.00
H578   H     0.33694   0.61639   0.15843   0.00000  Uiso   1.00
H579   H     0.35205   0.67609   0.09013   0.00000  Uiso   1.00
H580   H     0.59998   0.39514   0.26254   0.00000  Uiso   1.00
H581   H     0.24071   0.62253   0.14288   0.00000  Uiso   1.00
H582   H     0.77258   0.24843   0.99886   0.00000  Uiso   1.00
H583   H     0.11267   0.47990   0.94965   0.00000  Uiso   1.00
H584   H     0.21357   0.38490   0.00477   0.00000  Uiso   1.00
H585   H     0.04320   0.49273   0.94803   0.00000  Uiso   1.00
H586   H     0.05831   0.55243   0.87973   0.00000  Uiso   1.00
H587   H     0.36156   0.29477   0.09177   0.00000  Uiso   1.00
H588   H     0.00230   0.52217   0.97211   0.00000  Uiso   1.00
H589   H     0.03417   0.64806   0.82809   0.00000  Uiso   1.00
O590   O     0.05217   0.78457   0.21702   0.00000  Uiso   1.00
O591   O     0.08082   0.58291   0.06003   0.00000  Uiso   1.00
O592   O     0.62264   0.24808   0.87108   0.00000  Uiso   1.00
N593   N     0.53002   0.38456   0.21478   0.00000  Uiso   1.00
N594   N     0.19414   0.59715   0.10291   0.00000  Uiso   1.00
N595   N     0.22392   0.71486   0.96827   0.00000  Uiso   1.00
N596   N     0.40173   0.33056   0.12289   0.00000  Uiso   1.00
N597   N     0.06585   0.54315   0.01102   0.00000  Uiso   1.00
N598   N     0.09564   0.66086   0.87638   0.00000  Uiso   1.00
C599   C     0.01809   0.84117   0.12086   0.00000  Uiso   1.00
C600   C     0.08248   0.88592   0.14931   0.00000  Uiso   1.00
C601   C     0.15818   0.91824   0.20879   0.00000  Uiso   1.00
C602   C     0.20836   0.95690   0.22608   0.00000  Uiso   1.00
C603   C     0.81213   0.52544   0.27647   0.00000  Uiso   1.00
C604   C     0.02551   0.78183   0.11168   0.00000  Uiso   1.00
C605   C     0.05332   0.72662   0.13952   0.00000  Uiso   1.00
C606   C     0.05553   0.67766   0.12513   0.00000  Uiso   1.00
C607   C     0.07080   0.58458   0.11707   0.00000  Uiso   1.00
C608   C     0.91509   0.86343   0.05015   0.00000  Uiso   1.00
C609   C     0.35002   0.37682   0.02624   0.00000  Uiso   1.00
C610   C     0.25925   0.39654   0.96003   0.00000  Uiso   1.00
C611   C     0.10306   0.43016   0.85643   0.00000  Uiso   1.00
C612   C     0.97257   0.85236   0.04579   0.00000  Uiso   1.00
C613   C     0.05775   0.89200   0.10854   0.00000  Uiso   1.00
C614   C     0.10782   0.93062   0.12574   0.00000  Uiso   1.00
C615   C     0.18359   0.96300   0.18523   0.00000  Uiso   1.00
C616   C     0.00079   0.78790   0.07091   0.00000  Uiso   1.00
C617   C     0.00296   0.73900   0.05647   0.00000  Uiso   1.00
C618   C     0.03076   0.68374   0.08429   0.00000  Uiso   1.00
C619   C     0.89036   0.86951   0.00938   0.00000  Uiso   1.00
C620   C     0.29967   0.38920   0.94319   0.00000  Uiso   1.00
C621   C     0.23448   0.40263   0.91919   0.00000  Uiso   1.00
H622   H     0.03734   0.83644   0.15260   0.00000  Uiso   1.00
H623   H     0.17730   0.91352   0.24033   0.00000  Uiso   1.00
H624   H     0.07244   0.72193   0.17107   0.00000  Uiso   1.00
H625   H     0.36918   0.37211   0.05781   0.00000  Uiso   1.00
H626   H     0.32159   0.00165   0.31963   0.00000  Uiso   1.00
H627   H     0.10045   0.59767   0.17356   0.00000  Uiso   1.00
H628   H     0.17184   0.41435   0.93473   0.00000  Uiso   1.00
H629   H     0.95332   0.85709   0.01405   0.00000  Uiso   1.00
H630   H     0.08867   0.93532   0.09418   0.00000  Uiso   1.00
H631   H     0.98381   0.74372   0.02491   0.00000  Uiso   1.00
H632   H     0.28056   0.39390   0.91165   0.00000  Uiso   1.00
H633   H     0.74966   0.51934   0.20100   0.00000  Uiso   1.00
H634   H     0.02852   0.61535   0.05494   0.00000  Uiso   1.00
H635   H     0.09992   0.43203   0.81610   0.00000  Uiso   1.00
O636   O     0.37620   0.06156   0.31554   0.00000  Uiso   1.00
O637   O     0.08606   0.53156   0.12390   0.00000  Uiso   1.00
O638   O     0.02374   0.44703   0.81055   0.00000  Uiso   1.00
N639   N     0.78608   0.49509   0.28071   0.00000  Uiso   1.00
N640   N     0.07934   0.61739   0.14416   0.00000  Uiso   1.00
N641   N     0.17862   0.41344   0.92086   0.00000  Uiso   1.00
N642   N     0.74737   0.50460   0.21688   0.00000  Uiso   1.00
N643   N     0.04064   0.62691   0.08032   0.00000  Uiso   1.00
N644   N     0.13991   0.42296   0.85703   0.00000  Uiso   1.00
C645   C     0.11462   0.18182   0.17023   0.00000  Uiso   1.00
C646   C     0.11363   0.19657   0.19678   0.00000  Uiso   1.00
C647   C     0.17380   0.17147   0.25349   0.00000  Uiso   1.00
C648   C     0.16154   0.19093   0.26940   0.00000  Uiso   1.00
C649   C     0.17068   0.20732   0.31665   0.00000  Uiso   1.00
C650   C     0.12931   0.24183   0.16664   0.00000  Uiso   1.00
C651   C     0.20264   0.25478   0.19799   0.00000  Uiso   1.00
C652   C     0.20357   0.31233   0.18852   0.00000  Uiso   1.00
C653   C     0.23700   0.39897   0.18892   0.00000  Uiso   1.00
C654   C     0.01270   0.16133   0.09755   0.00000  Uiso   1.00
C655   C     0.98799   0.10659   0.07080   0.00000  Uiso   1.00
C656   C     0.39075   0.59638   0.00316   0.00000  Uiso   1.00
C657   C     0.24313   0.55802   0.89629   0.00000  Uiso   1.00
C658   C     0.98587   0.26100   0.09767   0.00000  Uiso   1.00
C659   C     0.04370   0.23958   0.15737   0.00000  Uiso   1.00
C660   C     0.03135   0.25908   0.17320   0.00000  Uiso   1.00
C661   C     0.09148   0.23402   0.22992   0.00000  Uiso   1.00
C662   C     0.05938   0.28484   0.12723   0.00000  Uiso   1.00
C663   C     0.06019   0.34239   0.11770   0.00000  Uiso   1.00
C664   C     0.13351   0.35542   0.14903   0.00000  Uiso   1.00
C665   C     0.94277   0.20433   0.05813   0.00000  Uiso   1.00
C666   C     0.84554   0.19420   0.99052   0.00000  Uiso   1.00
C667   C     0.32069   0.63947   0.96367   0.00000  Uiso   1.00
H668   H     0.16907   0.14834   0.20092   0.00000  Uiso   1.00
H669   H     0.22792   0.13819   0.28398   0.00000  Uiso   1.00
H670   H     0.25674   0.22148   0.22848   0.00000  Uiso   1.00
H671   H     0.04213   0.07332   0.10131   0.00000  Uiso   1.00
H672   H     0.26234   0.14593   0.35870   0.00000  Uiso   1.00
H673   H     0.32311   0.32155   0.24166   0.00000  Uiso   1.00
H674   H     0.37055   0.50912   0.97350   0.00000  Uiso   1.00
H675   H     0.93142   0.29449   0.06698   0.00000  Uiso   1.00
H676   H     0.97722   0.29237   0.14269   0.00000  Uiso   1.00
H677   H     0.00606   0.37566   0.08720   0.00000  Uiso   1.00
H678   H     0.79144   0.22750   0.96003   0.00000  Uiso   1.00
H679   H     0.05887   0.27107   0.24403   0.00000  Uiso   1.00
H680   H     0.11964   0.44668   0.12699   0.00000  Uiso   1.00
H681   H     0.16708   0.63425   0.85884   0.00000  Uiso   1.00
O682   O     0.19504   0.20448   0.35360   0.00000  Uiso   1.00
O683   O     0.27476   0.43488   0.20004   0.00000  Uiso   1.00
O684   O     0.18102   0.52498   0.84823   0.00000  Uiso   1.00
N685   N     0.20815   0.17566   0.32131   0.00000  Uiso   1.00
N686   N     0.26498   0.33986   0.21190   0.00000  Uiso   1.00
N687   N     0.34188   0.54777   0.96119   0.00000  Uiso   1.00
N688   N     0.09867   0.24300   0.25961   0.00000  Uiso   1.00
N689   N     0.15550   0.40719   0.15019   0.00000  Uiso   1.00
N690   N     0.23239   0.61510   0.89949   0.00000  Uiso   1.00
C691   C     0.71442   0.44284   0.96450   0.00000  Uiso   1.00
C692   C     0.67236   0.50573   0.94103   0.00000  Uiso   1.00
C693   C     0.57621   0.51883   0.88294   0.00000  Uiso   1.00
C694   C     0.55218   0.57924   0.87036   0.00000  Uiso   1.00
C695   C     0.97625   0.16996   0.82721   0.00000  Uiso   1.00
C696   C     0.76492   0.44472   0.97267   0.00000  Uiso   1.00
C697   C     0.74661   0.40651   0.94120   0.00000  Uiso   1.00
C698   C     0.80052   0.41555   0.95527   0.00000  Uiso   1.00
C699   C     0.86835   0.41152   0.96129   0.00000  Uiso   1.00
C700   C     0.79392   0.43562   0.03528   0.00000  Uiso   1.00
C701   C     0.80001   0.38976   0.05645   0.00000  Uiso   1.00
C702   C     0.87834   0.39114   0.12323   0.00000  Uiso   1.00
C703   C     0.99119   0.37298   0.22645   0.00000  Uiso   1.00
C704   C     0.84273   0.52683   0.04546   0.00000  Uiso   1.00
C705   C     0.74205   0.55135   0.98500   0.00000  Uiso   1.00
C706   C     0.71816   0.61176   0.97251   0.00000  Uiso   1.00
C707   C     0.62200   0.62494   0.91441   0.00000  Uiso   1.00
C708   C     0.83461   0.49034   0.01664   0.00000  Uiso   1.00
C709   C     0.88857   0.49944   0.03077   0.00000  Uiso   1.00
C710   C     0.87034   0.46126   0.99932   0.00000  Uiso   1.00
C711   C     0.86361   0.48125   0.07925   0.00000  Uiso   1.00
C712   C     0.94196   0.48269   0.14602   0.00000  Uiso   1.00
C713   C     0.94816   0.43684   0.16729   0.00000  Uiso   1.00
H714   H     0.66017   0.40732   0.93027   0.00000  Uiso   1.00
H715   H     0.52230   0.48351   0.84892   0.00000  Uiso   1.00
H716   H     0.69269   0.37121   0.90718   0.00000  Uiso   1.00
H717   H     0.74607   0.35446   0.02241   0.00000  Uiso   1.00
H718   H     0.40017   0.58810   0.77811   0.00000  Uiso   1.00
H719   H     0.75946   0.35129   0.90097   0.00000  Uiso   1.00
H720   H     0.87202   0.31598   0.14395   0.00000  Uiso   1.00
H721   H     0.89699   0.56235   0.07970   0.00000  Uiso   1.00
H722   H     0.77211   0.64705   0.00655   0.00000  Uiso   1.00
H723   H     0.94249   0.53475   0.06480   0.00000  Uiso   1.00
H724   H     0.99587   0.51800   0.18003   0.00000  Uiso   1.00
H725   H     0.10292   0.22084   0.90604   0.00000  Uiso   1.00
H726   H     0.96222   0.48402   0.02890   0.00000  Uiso   1.00
H727   H     0.07478   0.44872   0.27189   0.00000  Uiso   1.00
O728   O     0.91511   0.20740   0.79125   0.00000  Uiso   1.00
O729   O     0.88651   0.39670   0.95245   0.00000  Uiso   1.00
O730   O     0.03418   0.35037   0.27123   0.00000  Uiso   1.00
N731   N     0.46503   0.60772   0.81827   0.00000  Uiso   1.00
N732   N     0.80093   0.38632   0.93312   0.00000  Uiso   1.00
N733   N     0.90618   0.35329   0.16030   0.00000  Uiso   1.00
N734   N     0.57413   0.67914   0.88711   0.00000  Uiso   1.00
N735   N     0.91003   0.45774   0.00196   0.00000  Uiso   1.00
N736   N     0.01528   0.42472   0.22914   0.00000  Uiso   1.00
C737   C     0.98153   0.16196   0.90959   0.00000  Uiso   1.00
C738   C     0.91645   0.11735   0.88055   0.00000  Uiso   1.00
C739   C     0.84157   0.08471   0.82138   0.00000  Uiso   1.00
C740   C     0.79055   0.04624   0.80344   0.00000  Uiso   1.00
C741   C     0.18594   0.47783   0.75226   0.00000  Uiso   1.00
C742   C     0.97292   0.22155   0.91778   0.00000  Uiso   1.00
C743   C     0.94553   0.27652   0.88993   0.00000  Uiso   1.00
C744   C     0.94205   0.32578   0.90334   0.00000  Uiso   1.00
C745   C     0.92518   0.41915   0.91001   0.00000  Uiso   1.00
C746   C     0.08438   0.13996   0.98071   0.00000  Uiso   1.00
C747   C     0.65072   0.62635   0.00577   0.00000  Uiso   1.00
C748   C     0.74109   0.60692   0.07216   0.00000  Uiso   1.00
C749   C     0.89728   0.57361   0.17653   0.00000  Uiso   1.00
C750   C     0.02407   0.15169   0.98294   0.00000  Uiso   1.00
C751   C     0.93955   0.11177   0.92039   0.00000  Uiso   1.00
C752   C     0.88863   0.07333   0.90253   0.00000  Uiso   1.00
C753   C     0.81369   0.04064   0.84335   0.00000  Uiso   1.00
C754   C     0.99602   0.21597   0.95762   0.00000  Uiso   1.00
C755   C     0.99258   0.26515   0.97108   0.00000  Uiso   1.00
C756   C     0.96519   0.32018   0.94325   0.00000  Uiso   1.00
C757   C     0.10748   0.13437   0.02055   0.00000  Uiso   1.00
C758   C     0.19777   0.11497   0.08691   0.00000  Uiso   1.00
C759   C     0.76424   0.60132   0.11207   0.00000  Uiso   1.00
H760   H     0.96355   0.16632   0.87858   0.00000  Uiso   1.00
H761   H     0.82371   0.08905   0.79056   0.00000  Uiso   1.00
H762   H     0.92766   0.28083   0.85911   0.00000  Uiso   1.00
H763   H     0.63282   0.63067   0.97493   0.00000  Uiso   1.00
H764   H     0.17884   0.50093   0.71054   0.00000  Uiso   1.00
H765   H     0.89806   0.40533   0.85509   0.00000  Uiso   1.00
H766   H     0.83067   0.58869   0.09932   0.00000  Uiso   1.00
H767   H     0.04205   0.14734   0.01395   0.00000  Uiso   1.00
H768   H     0.90652   0.06902   0.93336   0.00000  Uiso   1.00
H769   H     0.01047   0.26081   0.00191   0.00000  Uiso   1.00
H770   H     0.21562   0.11065   0.11773   0.00000  Uiso   1.00
H771   H     0.24605   0.48468   0.82644   0.00000  Uiso   1.00
H772   H     0.96527   0.38908   0.97099   0.00000  Uiso   1.00
H773   H     0.89788   0.57244   0.21522   0.00000  Uiso   1.00
O774   O     0.12185   0.44165   0.71302   0.00000  Uiso   1.00
O775   O     0.90948   0.47220   0.90268   0.00000  Uiso   1.00
O776   O     0.97704   0.55678   0.22309   0.00000  Uiso   1.00
N777   N     0.21327   0.50785   0.74888   0.00000  Uiso   1.00
N778   N     0.91821   0.38593   0.88402   0.00000  Uiso   1.00
N779   N     0.82267   0.58992   0.11236   0.00000  Uiso   1.00
N780   N     0.24944   0.49910   0.81125   0.00000  Uiso   1.00
N781   N     0.95438   0.37719   0.94638   0.00000  Uiso   1.00
N782   N     0.85884   0.58117   0.17472   0.00000  Uiso   1.00
C783   C     0.88462   0.85013   0.87508   0.00000  Uiso   1.00
C784   C     0.89518   0.83898   0.85461   0.00000  Uiso   1.00
C785   C     0.83900   0.86479   0.79984   0.00000  Uiso   1.00
C786   C     0.86007   0.84880   0.78963   0.00000  Uiso   1.00
C787   C     0.86508   0.83759   0.75127   0.00000  Uiso   1.00
C788   C     0.87009   0.78817   0.87721   0.00000  Uiso   1.00
C789   C     0.79281   0.77128   0.84145   0.00000  Uiso   1.00
C790   C     0.79277   0.71251   0.85028   0.00000  Uiso   1.00
C791   C     0.75886   0.62245   0.84705   0.00000  Uiso   1.00
C792   C     0.98271   0.87231   0.94775   0.00000  Uiso   1.00
C793   C     0.00013   0.92615   0.97131   0.00000  Uiso   1.00
C794   C     0.09491   0.93822   0.03954   0.00000  Uiso   1.00
C795   C     0.73586   0.47879   0.14583   0.00000  Uiso   1.00
C796   C     0.02195   0.77581   0.95437   0.00000  Uiso   1.00
C797   C     0.96977   0.79861   0.89767   0.00000  Uiso   1.00
C798   C     0.99093   0.78257   0.88755   0.00000  Uiso   1.00
C799   C     0.93479   0.80836   0.83278   0.00000  Uiso   1.00
C800   C     0.94467   0.74780   0.92027   0.00000  Uiso   1.00
C801   C     0.94475   0.68905   0.92917   0.00000  Uiso   1.00
C802   C     0.86749   0.67207   0.89343   0.00000  Uiso   1.00
C803   C     0.05730   0.83194   0.99082   0.00000  Uiso   1.00
C804   C     0.15206   0.84392   0.05902   0.00000  Uiso   1.00
C805   C     0.16963   0.89778   0.08268   0.00000  Uiso   1.00
H806   H     0.82655   0.88156   0.84155   0.00000  Uiso   1.00
H807   H     0.78127   0.89603   0.76652   0.00000  Uiso   1.00
H808   H     0.73511   0.80253   0.80813   0.00000  Uiso   1.00
H809   H     0.94239   0.95738   0.93797   0.00000  Uiso   1.00
H810   H     0.76395   0.89426   0.70230   0.00000  Uiso   1.00
H811   H     0.66662   0.69711   0.79007   0.00000  Uiso   1.00
H812   H     0.60372   0.52364   0.06385   0.00000  Uiso   1.00
H813   H     0.08002   0.74438   0.98789   0.00000  Uiso   1.00
H814   H     0.04866   0.75133   0.92089   0.00000  Uiso   1.00
H815   H     0.00248   0.65783   0.96250   0.00000  Uiso   1.00
H816   H     0.20977   0.81268   0.09234   0.00000  Uiso   1.00
H817   H     0.98096   0.77681   0.82759   0.00000  Uiso   1.00
H818   H     0.88363   0.57966   0.91536   0.00000  Uiso   1.00
H819   H     0.82073   0.40619   0.18914   0.00000  Uiso   1.00
O820   O     0.84723   0.84256   0.71821   0.00000  Uiso   1.00
O821   O     0.71954   0.58392   0.83337   0.00000  Uiso   1.00
O822   O     0.79300   0.51232   0.19256   0.00000  Uiso   1.00
N823   N     0.81934   0.86567   0.74099   0.00000  Uiso   1.00
N824   N     0.72833   0.68135   0.82304   0.00000  Uiso   1.00
N825   N     0.63698   0.48662   0.07901   0.00000  Uiso   1.00
N826   N     0.93611   0.80247   0.80841   0.00000  Uiso   1.00
N827   N     0.84511   0.61815   0.89046   0.00000  Uiso   1.00
N828   N     0.75375   0.42342   0.14643   0.00000  Uiso   1.00
C829   C     0.82734   0.07027   0.10341   0.00000  Uiso   1.00
C830   C     0.85185   0.00589   0.11165   0.00000  Uiso   1.00
C831   C     0.94391   0.98184   0.16976   0.00000  Uiso   1.00
C832   C     0.95115   0.92201   0.16710   0.00000  Uiso   1.00
C833   C     0.00167   0.82729   0.18882   0.00000  Uiso   1.00
C834   C     0.75928   0.06447   0.08082   0.00000  Uiso   1.00
C835   C     0.77352   0.08969   0.11301   0.00000  Uiso   1.00
C836   C     0.70282   0.07917   0.08439   0.00000  Uiso   1.00
C837   C     0.60960   0.07544   0.05823   0.00000  Uiso   1.00
C838   C     0.76750   0.09691   0.04372   0.00000  Uiso   1.00
C839   C     0.78863   0.14941   0.04470   0.00000  Uiso   1.00
C840   C     0.72484   0.16621   0.98484   0.00000  Uiso   1.00
C841   C     0.64438   0.21284   0.90107   0.00000  Uiso   1.00
C842   C     0.67647   0.00676   0.99535   0.00000  Uiso   1.00
C843   C     0.76990   0.97140   0.05295   0.00000  Uiso   1.00
C844   C     0.77700   0.91158   0.05020   0.00000  Uiso   1.00
C845   C     0.86906   0.88745   0.10830   0.00000  Uiso   1.00
C846   C     0.67734   0.02998   0.02213   0.00000  Uiso   1.00
C847   C     0.60660   0.01943   0.99345   0.00000  Uiso   1.00
C848   C     0.62073   0.04462   0.02559   0.00000  Uiso   1.00
C849   C     0.68556   0.06241   0.98502   0.00000  Uiso   1.00
C850   C     0.62172   0.07914   0.92514   0.00000  Uiso   1.00
C851   C     0.64275   0.13165   0.92604   0.00000  Uiso   1.00
H852   H     0.89114   0.09712   0.14911   0.00000  Uiso   1.00
H853   H     0.00731   0.00855   0.21517   0.00000  Uiso   1.00
H854   H     0.83694   0.11639   0.15843   0.00000  Uiso   1.00
H855   H     0.85205   0.17609   0.09013   0.00000  Uiso   1.00
H856   H     0.09998   0.89514   0.26254   0.00000  Uiso   1.00
H857   H     0.74071   0.12253   0.14288   0.00000  Uiso   1.00
H858   H     0.27258   0.74843   0.99886   0.00000  Uiso   1.00
H859   H     0.61267   0.97990   0.94965   0.00000  Uiso   1.00
H860   H     0.71357   0.88490   0.00477   0.00000  Uiso   1.00
H861   H     0.54320   0.99273   0.94803   0.00000  Uiso   1.00
H862   H     0.55831   0.05243   0.87973   0.00000  Uiso   1.00
H863   H     0.86156   0.79477   0.09177   0.00000  Uiso   1.00
H864   H     0.50230   0.02217   0.97211   0.00000  Uiso   1.00
H865   H     0.53417   0.14806   0.82809   0.00000  Uiso   1.00
O866   O     0.55217   0.28457   0.21702   0.00000  Uiso   1.00
O867   O     0.58082   0.08291   0.06003   0.00000  Uiso   1.00
O868   O     0.12264   0.74808   0.87108   0.00000  Uiso   1.00
N869   N     0.03002   0.88456   0.21478   0.00000  Uiso   1.00
N870   N     0.69414   0.09715   0.10291   0.00000  Uiso   1.00
N871   N     0.72392   0.21486   0.96827   0.00000  Uiso   1.00
N872   N     0.90173   0.83056   0.12289   0.00000  Uiso   1.00
N873   N     0.56585   0.04315   0.01102   0.00000  Uiso   1.00
N874   N     0.59564   0.16086   0.87638   0.00000  Uiso   1.00
C875   C     0.51809   0.34117   0.12086   0.00000  Uiso   1.00
C876   C     0.58248   0.38592   0.14931   0.00000  Uiso   1.00
C877   C     0.65818   0.41824   0.20879   0.00000  Uiso   1.00
C878   C     0.70836   0.45690   0.22608   0.00000  Uiso   1.00
C879   C     0.31213   0.02544   0.27647   0.00000  Uiso   1.00
C880   C     0.52551   0.28183   0.11168   0.00000  Uiso   1.00
C881   C     0.55332   0.22662   0.13952   0.00000  Uiso   1.00
C882   C     0.55553   0.17766   0.12513   0.00000  Uiso   1.00
C883   C     0.57080   0.08458   0.11707   0.00000  Uiso   1.00
C884   C     0.41509   0.36343   0.05015   0.00000  Uiso   1.00
C885   C     0.85002   0.87682   0.02624   0.00000  Uiso   1.00
C886   C     0.75925   0.89654   0.96003   0.00000  Uiso   1.00
C887   C     0.60306   0.93016   0.85643   0.00000  Uiso   1.00
C888   C     0.47257   0.35236   0.04579   0.00000  Uiso   1.00
C889   C     0.55775   0.39200   0.10854   0.00000  Uiso   1.00
C890   C     0.60782   0.43062   0.12574   0.00000  Uiso   1.00
C891   C     0.68359   0.46300   0.18523   0.00000  Uiso   1.00
C892   C     0.50079   0.28790   0.07091   0.00000  Uiso   1.00
C893   C     0.50296   0.23900   0.05647   0.00000  Uiso   1.00
C894   C     0.53076   0.18374   0.08429   0.00000  Uiso   1.00
C895   C     0.39036   0.36951   0.00938   0.00000  Uiso   1.00
C896   C     0.79967   0.88920   0.94319   0.00000  Uiso   1.00
C897   C     0.73448   0.90263   0.91919   0.00000  Uiso   1.00
H898   H     0.53734   0.33644   0.15260   0.00000  Uiso   1.00
H899   H     0.67730   0.41352   0.24033   0.00000  Uiso   1.00
H900   H     0.57244   0.22193   0.17107   0.00000  Uiso   1.00
H901   H     0.86918   0.87211   0.05781   0.00000  Uiso   1.00
H902   H     0.82159   0.50165   0.31963   0.00000  Uiso   1.00
H903   H     0.60045   0.09767   0.17356   0.00000  Uiso   1.00
H904   H     0.67184   0.91435   0.93473   0.00000  Uiso   1.00
H905   H     0.45332   0.35709   0.01405   0.00000  Uiso   1.00
H906   H     0.58867   0.43532   0.09418   0.00000  Uiso   1.00
H907   H     0.48381   0.24372   0.02491   0.00000  Uiso   1.00
H908   H     0.78056   0.89390   0.91165   0.00000  Uiso   1.00
H909   H     0.24966   0.01934   0.20100   0.00000  Uiso   1.00
H910   H     0.52852   0.11535   0.05494   0.00000  Uiso   1.00
H911   H     0.59992   0.93203   0.81610   0.00000  Uiso   1.00
O912   O     0.87620   0.56156   0.31554   0.00000  Uiso   1.00
O913   O     0.58606   0.03156   0.12390   0.00000  Uiso   1.00
O914   O     0.52374   0.94703   0.81055   0.00000  Uiso   1.00
N915   N     0.28608   0.99509   0.28071   0.00000  Uiso   1.00
N916   N     0.57934   0.11739   0.14416   0.00000  Uiso   1.00
N917   N     0.67862   0.91344   0.92086   0.00000  Uiso   1.00
N918   N     0.24737   0.00460   0.21688   0.00000  Uiso   1.00
N919   N     0.54064   0.12691   0.08032   0.00000  Uiso   1.00
N920   N     0.63991   0.92296   0.85703   0.00000  Uiso   1.00
C921   C     0.61462   0.68182   0.17023   0.00000  Uiso   1.00
C922   C     0.61363   0.69657   0.19678   0.00000  Uiso   1.00
C923   C     0.67380   0.67147   0.25349   0.00000  Uiso   1.00
C924   C     0.66154   0.69093   0.26940   0.00000  Uiso   1.00
C925   C     0.67068   0.70732   0.31665   0.00000  Uiso   1.00
C926   C     0.62931   0.74183   0.16664   0.00000  Uiso   1.00
C927   C     0.70264   0.75478   0.19799   0.00000  Uiso   1.00
C928   C     0.70357   0.81233   0.18852   0.00000  Uiso   1.00
C929   C     0.73700   0.89897   0.18892   0.00000  Uiso   1.00
C930   C     0.51270   0.66133   0.09755   0.00000  Uiso   1.00
C931   C     0.48799   0.60659   0.07080   0.00000  Uiso   1.00
C932   C     0.89075   0.09638   0.00316   0.00000  Uiso   1.00
C933   C     0.74313   0.05802   0.89629   0.00000  Uiso   1.00
C934   C     0.48587   0.76100   0.09767   0.00000  Uiso   1.00
C935   C     0.54370   0.73958   0.15737   0.00000  Uiso   1.00
C936   C     0.53135   0.75908   0.17320   0.00000  Uiso   1.00
C937   C     0.59148   0.73402   0.22992   0.00000  Uiso   1.00
C938   C     0.55938   0.78484   0.12723   0.00000  Uiso   1.00
C939   C     0.56019   0.84239   0.11770   0.00000  Uiso   1.00
C940   C     0.63351   0.85542   0.14903   0.00000  Uiso   1.00
C941   C     0.44277   0.70433   0.05813   0.00000  Uiso   1.00
C942   C     0.34554   0.69420   0.99052   0.00000  Uiso   1.00
C943   C     0.82069   0.13947   0.96367   0.00000  Uiso   1.00
H944   H     0.66907   0.64834   0.20092   0.00000  Uiso   1.00
H945   H     0.72792   0.63819   0.28398   0.00000  Uiso   1.00
H946   H     0.75674   0.72148   0.22848   0.00000  Uiso   1.00
H947   H     0.54213   0.57332   0.10131   0.00000  Uiso   1.00
H948   H     0.76234   0.64593   0.35870   0.00000  Uiso   1.00
H949   H     0.82311   0.82155   0.24166   0.00000  Uiso   1.00
H950   H     0.87055   0.00912   0.97350   0.00000  Uiso   1.00
H951   H     0.43142   0.79449   0.06698   0.00000  Uiso   1.00
H952   H     0.47722   0.79237   0.14269   0.00000  Uiso   1.00
H953   H     0.50606   0.87566   0.08720   0.00000  Uiso   1.00
H954   H     0.29144   0.72750   0.96003   0.00000  Uiso   1.00
H955   H     0.55887   0.77107   0.24403   0.00000  Uiso   1.00
H956   H     0.61964   0.94668   0.12699   0.00000  Uiso   1.00
H957   H     0.66708   0.13425   0.85884   0.00000  Uiso   1.00
O958   O     0.69504   0.70448   0.35360   0.00000  Uiso   1.00
O959   O     0.77476   0.93488   0.20004   0.00000  Uiso   1.00
O960   O     0.68102   0.02498   0.84823   0.00000  Uiso   1.00
N961   N     0.70815   0.67566   0.32131   0.00000  Uiso   1.00
N962   N     0.76498   0.83986   0.21190   0.00000  Uiso   1.00
N963   N     0.84188   0.04777   0.96119   0.00000  Uiso   1.00
N964   N     0.59867   0.74300   0.25961   0.00000  Uiso   1.00
N965   N     0.65550   0.90719   0.15019   0.00000  Uiso   1.00
N966   N     0.73239   0.11510   0.89949   0.00000  Uiso   1.00
C967   C     0.21442   0.94284   0.96450   0.00000  Uiso   1.00
C968   C     0.17236   0.00573   0.94103   0.00000  Uiso   1.00
C969   C     0.07621   0.01883   0.88294   0.00000  Uiso   1.00
C970   C     0.05218   0.07924   0.87036   0.00000  Uiso   1.00
C971   C     0.47625   0.66996   0.82721   0.00000  Uiso   1.00
C972   C     0.26492   0.94472   0.97267   0.00000  Uiso   1.00
C973   C     0.24661   0.90651   0.94120   0.00000  Uiso   1.00
C974   C     0.30052   0.91555   0.95527   0.00000  Uiso   1.00
C975   C     0.36835   0.91152   0.96129   0.00000  Uiso   1.00
C976   C     0.29392   0.93562   0.03528   0.00000  Uiso   1.00
C977   C     0.30001   0.88976   0.05645   0.00000  Uiso   1.00
C978   C     0.37834   0.89114   0.12323   0.00000  Uiso   1.00
C979   C     0.49119   0.87298   0.22645   0.00000  Uiso   1.00
C980   C     0.34273   0.02683   0.04546   0.00000  Uiso   1.00
C981   C     0.24205   0.05135   0.98500   0.00000  Uiso   1.00
C982   C     0.21816   0.11176   0.97251   0.00000  Uiso   1.00
C983   C     0.12200   0.12494   0.91441   0.00000  Uiso   1.00
C984   C     0.33461   0.99034   0.01664   0.00000  Uiso   1.00
C985   C     0.38857   0.99944   0.03077   0.00000  Uiso   1.00
C986   C     0.37034   0.96126   0.99932   0.00000  Uiso   1.00
C987   C     0.36361   0.98125   0.07925   0.00000  Uiso   1.00
C988   C     0.44196   0.98269   0.14602   0.00000  Uiso   1.00
C989   C     0.44816   0.93684   0.16729   0.00000  Uiso   1.00
H990   H     0.16017   0.90732   0.93027   0.00000  Uiso   1.00
H991   H     0.02230   0.98351   0.84892   0.00000  Uiso   1.00
H992   H     0.19269   0.87121   0.90718   0.00000  Uiso   1.00
H993   H     0.24607   0.85446   0.02241   0.00000  Uiso   1.00
H994   H     0.90017   0.08810   0.77811   0.00000  Uiso   1.00
H995   H     0.25946   0.85129   0.90097   0.00000  Uiso   1.00
H996   H     0.37202   0.81598   0.14395   0.00000  Uiso   1.00
H997   H     0.39699   0.06235   0.07970   0.00000  Uiso   1.00
H998   H     0.27211   0.14705   0.00655   0.00000  Uiso   1.00
H999   H     0.44249   0.03475   0.06480   0.00000  Uiso   1.00
H1000  H     0.49587   0.01800   0.18003   0.00000  Uiso   1.00
H1001  H     0.60292   0.72084   0.90604   0.00000  Uiso   1.00
H1002  H     0.46222   0.98402   0.02890   0.00000  Uiso   1.00
H1003  H     0.57478   0.94872   0.27189   0.00000  Uiso   1.00
O1004  O     0.41511   0.70740   0.79125   0.00000  Uiso   1.00
O1005  O     0.38651   0.89670   0.95245   0.00000  Uiso   1.00
O1006  O     0.53418   0.85037   0.27123   0.00000  Uiso   1.00
N1007  N     0.96503   0.10772   0.81827   0.00000  Uiso   1.00
N1008  N     0.30093   0.88632   0.93312   0.00000  Uiso   1.00
N1009  N     0.40618   0.85329   0.16030   0.00000  Uiso   1.00
N1010  N     0.07413   0.17914   0.88711   0.00000  Uiso   1.00
N1011  N     0.41003   0.95774   0.00196   0.00000  Uiso   1.00
N1012  N     0.51528   0.92472   0.22914   0.00000  Uiso   1.00
C1013  C     0.48153   0.66196   0.90959   0.00000  Uiso   1.00
C1014  C     0.41645   0.61735   0.88055   0.00000  Uiso   1.00
C1015  C     0.34157   0.58471   0.82138   0.00000  Uiso   1.00
C1016  C     0.29055   0.54624   0.80344   0.00000  Uiso   1.00
C1017  C     0.68594   0.97783   0.75226   0.00000  Uiso   1.00
C1018  C     0.47292   0.72155   0.91778   0.00000  Uiso   1.00
C1019  C     0.44553   0.77652   0.88993   0.00000  Uiso   1.00
C1020  C     0.44205   0.82578   0.90334   0.00000  Uiso   1.00
C1021  C     0.42518   0.91915   0.91001   0.00000  Uiso   1.00
C1022  C     0.58438   0.63996   0.98071   0.00000  Uiso   1.00
C1023  C     0.15072   0.12635   0.00577   0.00000  Uiso   1.00
C1024  C     0.24109   0.10692   0.07216   0.00000  Uiso   1.00
C1025  C     0.39728   0.07361   0.17653   0.00000  Uiso   1.00
C1026  C     0.52407   0.65169   0.98294   0.00000  Uiso   1.00
C1027  C     0.43955   0.61177   0.92039   0.00000  Uiso   1.00
C1028  C     0.38863   0.57333   0.90253   0.00000  Uiso   1.00
C1029  C     0.31369   0.54064   0.84335   0.00000  Uiso   1.00
C1030  C     0.49602   0.71597   0.95762   0.00000  Uiso   1.00
C1031  C     0.49258   0.76515   0.97108   0.00000  Uiso   1.00
C1032  C     0.46519   0.82018   0.94325   0.00000  Uiso   1.00
C1033  C     0.60748   0.63437   0.02055   0.00000  Uiso   1.00
C1034  C     0.69777   0.61497   0.08691   0.00000  Uiso   1.00
C1035  C     0.26424   0.10132   0.11207   0.00000  Uiso   1.00
H1036  H     0.46355   0.66632   0.87858   0.00000  Uiso   1.00
H1037  H     0.32371   0.58905   0.79056   0.00000  Uiso   1.00
H1038  H     0.42766   0.78083   0.85911   0.00000  Uiso   1.00
H1039  H     0.13282   0.13067   0.97493   0.00000  Uiso   1.00
H1040  H     0.67884   0.00093   0.71054   0.00000  Uiso   1.00
H1041  H     0.39806   0.90533   0.85509   0.00000  Uiso   1.00
H1042  H     0.33067   0.08869   0.09932   0.00000  Uiso   1.00
H1043  H     0.54205   0.64734   0.01395   0.00000  Uiso   1.00
H1044  H     0.40652   0.56902   0.93336   0.00000  Uiso   1.00
H1045  H     0.51047   0.76081   0.00191   0.00000  Uiso   1.00
H1046  H     0.71562   0.61065   0.11773   0.00000  Uiso   1.00
H1047  H     0.74605   0.98468   0.82644   0.00000  Uiso   1.00
H1048  H     0.46527   0.88908   0.97099   0.00000  Uiso   1.00
H1049  H     0.39788   0.07244   0.21522   0.00000  Uiso   1.00
O1050  O     0.62185   0.94165   0.71302   0.00000  Uiso   1.00
O1051  O     0.40948   0.97220   0.90268   0.00000  Uiso   1.00
O1052  O     0.47704   0.05678   0.22309   0.00000  Uiso   1.00
N1053  N     0.71327   0.00785   0.74888   0.00000  Uiso   1.00
N1054  N     0.41821   0.88593   0.88402   0.00000  Uiso   1.00
N1055  N     0.32267   0.08992   0.11236   0.00000  Uiso   1.00
N1056  N     0.74944   0.99910   0.81125   0.00000  Uiso   1.00
N1057  N     0.45438   0.87719   0.94638   0.00000  Uiso   1.00
N1058  N     0.35884   0.08117   0.17472   0.00000  Uiso   1.00
C1059  C     0.38462   0.35013   0.87508   0.00000  Uiso   1.00
C1060  C     0.39518   0.33898   0.85461   0.00000  Uiso   1.00
C1061  C     0.33900   0.36479   0.79984   0.00000  Uiso   1.00
C1062  C     0.36007   0.34880   0.78963   0.00000  Uiso   1.00
C1063  C     0.36508   0.33759   0.75127   0.00000  Uiso   1.00
C1064  C     0.37009   0.28817   0.87721   0.00000  Uiso   1.00
C1065  C     0.29281   0.27128   0.84145   0.00000  Uiso   1.00
C1066  C     0.29277   0.21251   0.85028   0.00000  Uiso   1.00
C1067  C     0.25886   0.12245   0.84705   0.00000  Uiso   1.00
C1068  C     0.48271   0.37231   0.94775   0.00000  Uiso   1.00
C1069  C     0.50013   0.42615   0.97131   0.00000  Uiso   1.00
C1070  C     0.59491   0.43822   0.03954   0.00000  Uiso   1.00
C1071  C     0.23586   0.97879   0.14583   0.00000  Uiso   1.00
C1072  C     0.52195   0.27581   0.95437   0.00000  Uiso   1.00
C1073  C     0.46977   0.29861   0.89767   0.00000  Uiso   1.00
C1074  C     0.49093   0.28257   0.88755   0.00000  Uiso   1.00
C1075  C     0.43479   0.30836   0.83278   0.00000  Uiso   1.00
C1076  C     0.44467   0.24780   0.92027   0.00000  Uiso   1.00
C1077  C     0.44475   0.18905   0.92917   0.00000  Uiso   1.00
C1078  C     0.36749   0.17207   0.89343   0.00000  Uiso   1.00
C1079  C     0.55730   0.33194   0.99082   0.00000  Uiso   1.00
C1080  C     0.65206   0.34392   0.05902   0.00000  Uiso   1.00
C1081  C     0.66963   0.39778   0.08268   0.00000  Uiso   1.00
H1082  H     0.32655   0.38156   0.84155   0.00000  Uiso   1.00
H1083  H     0.28127   0.39603   0.76652   0.00000  Uiso   1.00
H1084  H     0.23511   0.30253   0.80813   0.00000  Uiso   1.00
H1085  H     0.44239   0.45738   0.93797   0.00000  Uiso   1.00
H1086  H     0.26395   0.39426   0.70230   0.00000  Uiso   1.00
H1087  H     0.16662   0.19711   0.79007   0.00000  Uiso   1.00
H1088  H     0.10372   0.02364   0.06385   0.00000  Uiso   1.00
H1089  H     0.58002   0.24438   0.98789   0.00000  Uiso   1.00
H1090  H     0.54866   0.25133   0.92089   0.00000  Uiso   1.00
H1091  H     0.50248   0.15783   0.96250   0.00000  Uiso   1.00
H1092  H     0.70977   0.31268   0.09234   0.00000  Uiso   1.00
H1093  H     0.48096   0.27681   0.82759   0.00000  Uiso   1.00
H1094  H     0.38363   0.07966   0.91536   0.00000  Uiso   1.00
H1095  H     0.32073   0.90619   0.18914   0.00000  Uiso   1.00
O1096  O     0.34723   0.34256   0.71821   0.00000  Uiso   1.00
O1097  O     0.21954   0.08392   0.83337   0.00000  Uiso   1.00
O1098  O     0.29300   0.01232   0.19256   0.00000  Uiso   1.00
N1099  N     0.31934   0.36567   0.74099   0.00000  Uiso   1.00
N1100  N     0.22833   0.18135   0.82304   0.00000  Uiso   1.00
N1101  N     0.13698   0.98662   0.07901   0.00000  Uiso   1.00
N1102  N     0.43611   0.30247   0.80841   0.00000  Uiso   1.00
N1103  N     0.34511   0.11815   0.89046   0.00000  Uiso   1.00
N1104  N     0.25375   0.92342   0.14643   0.00000  Uiso   1.00
