data_job_04020
_audit_creation_date              2018-12-19
_audit_creation_method            'Materials Studio'
_symmetry_space_group_name_H-M    'P1'
_symmetry_Int_Tables_number       1
_symmetry_cell_setting            triclinic
loop_
_symmetry_equiv_pos_as_xyz
  x,y,z
_cell_length_a                    33.3621
_cell_length_b                    25.7803
_cell_length_c                    12.2509
_cell_angle_alpha                 90.0000
_cell_angle_beta                  90.0000
_cell_angle_gamma                 90.0000
loop_
_atom_site_label
_atom_site_type_symbol
_atom_site_fract_x
_atom_site_fract_y
_atom_site_fract_z
_atom_site_U_iso_or_equiv
_atom_site_adp_type
_atom_site_occupancy
C1     C     0.22978   0.50851   0.30227   0.00000  Uiso   1.00
C2     C     0.26613   0.50985   0.37771   0.00000  Uiso   1.00
C3     C     0.30073   0.48054   0.36555   0.00000  Uiso   1.00
C4     C     0.33057   0.48737   0.44325   0.00000  Uiso   1.00
C5     C     0.38769   0.48412   0.54723   0.00000  Uiso   1.00
C6     C     0.19395   0.49553   0.37457   0.00000  Uiso   1.00
C7     C     0.16787   0.45418   0.35975   0.00000  Uiso   1.00
C8     C     0.13695   0.44896   0.43480   0.00000  Uiso   1.00
C9     C     0.08201   0.42350   0.53386   0.00000  Uiso   1.00
C10    C     0.22341   0.56417   0.26391   0.00000  Uiso   1.00
C11    C     0.22209   0.58054   0.15605   0.00000  Uiso   1.00
C12    C     0.21595   0.63311   0.13793   0.00000  Uiso   1.00
C13    C     0.20675   0.71423   0.06518   0.00000  Uiso   1.00
C14    C     0.22123   0.57275   0.46187   0.00000  Uiso   1.00
C15    C     0.26148   0.54475   0.46440   0.00000  Uiso   1.00
C16    C     0.29127   0.55162   0.54213   0.00000  Uiso   1.00
C17    C     0.32591   0.52233   0.53009   0.00000  Uiso   1.00
C18    C     0.18931   0.53042   0.46126   0.00000  Uiso   1.00
C19    C     0.15841   0.52526   0.53634   0.00000  Uiso   1.00
C20    C     0.13230   0.48392   0.52165   0.00000  Uiso   1.00
C21    C     0.21877   0.59907   0.35060   0.00000  Uiso   1.00
C22    C     0.21263   0.65162   0.33264   0.00000  Uiso   1.00
C23    C     0.21130   0.66807   0.22478   0.00000  Uiso   1.00
H24    H     0.23340   0.48134   0.23478   0.00000  Uiso   1.00
H25    H     0.30431   0.45354   0.29846   0.00000  Uiso   1.00
H26    H     0.17147   0.42719   0.29265   0.00000  Uiso   1.00
H27    H     0.22568   0.55353   0.08899   0.00000  Uiso   1.00
H28    H     0.38088   0.43809   0.40731   0.00000  Uiso   1.00
H29    H     0.10078   0.38254   0.39505   0.00000  Uiso   1.00
H30    H     0.21508   0.64895   0.96558   0.00000  Uiso   1.00
H31    H     0.21762   0.59992   0.52937   0.00000  Uiso   1.00
H32    H     0.28767   0.57863   0.60921   0.00000  Uiso   1.00
H33    H     0.15483   0.55227   0.60341   0.00000  Uiso   1.00
H34    H     0.20903   0.67861   0.39975   0.00000  Uiso   1.00
H35    H     0.36737   0.53961   0.65953   0.00000  Uiso   1.00
H36    H     0.08726   0.48406   0.64727   0.00000  Uiso   1.00
H37    H     0.20157   0.75047   0.21781   0.00000  Uiso   1.00
O38    O     0.42049   0.47269   0.58065   0.00000  Uiso   1.00
O39    O     0.05300   0.39981   0.56455   0.00000  Uiso   1.00
O40    O     0.20296   0.74934   0.00110   0.00000  Uiso   1.00
N41    N     0.36809   0.46491   0.45570   0.00000  Uiso   1.00
N42    N     0.10621   0.41297   0.44425   0.00000  Uiso   1.00
N43    N     0.21307   0.66204   0.04273   0.00000  Uiso   1.00
N44    N     0.36082   0.51954   0.59142   0.00000  Uiso   1.00
N45    N     0.09894   0.46760   0.57997   0.00000  Uiso   1.00
N46    N     0.20579   0.71667   0.17845   0.00000  Uiso   1.00
C47    C     0.22978   0.00851   0.80227   0.00000  Uiso   1.00
C48    C     0.26613   0.00985   0.87771   0.00000  Uiso   1.00
C49    C     0.30073   0.98054   0.86555   0.00000  Uiso   1.00
C50    C     0.33057   0.98737   0.94325   0.00000  Uiso   1.00
C51    C     0.38769   0.98412   0.04723   0.00000  Uiso   1.00
C52    C     0.19395   0.99553   0.87457   0.00000  Uiso   1.00
C53    C     0.16787   0.95418   0.85975   0.00000  Uiso   1.00
C54    C     0.13695   0.94896   0.93480   0.00000  Uiso   1.00
C55    C     0.08201   0.92350   0.03386   0.00000  Uiso   1.00
C56    C     0.22341   0.06417   0.76391   0.00000  Uiso   1.00
C57    C     0.22209   0.08054   0.65605   0.00000  Uiso   1.00
C58    C     0.21595   0.13311   0.63793   0.00000  Uiso   1.00
C59    C     0.20675   0.21423   0.56518   0.00000  Uiso   1.00
C60    C     0.22123   0.07275   0.96187   0.00000  Uiso   1.00
C61    C     0.26148   0.04475   0.96440   0.00000  Uiso   1.00
C62    C     0.29127   0.05162   0.04213   0.00000  Uiso   1.00
C63    C     0.32591   0.02233   0.03009   0.00000  Uiso   1.00
C64    C     0.18931   0.03042   0.96126   0.00000  Uiso   1.00
C65    C     0.15841   0.02526   0.03634   0.00000  Uiso   1.00
C66    C     0.13230   0.98392   0.02165   0.00000  Uiso   1.00
C67    C     0.21877   0.09907   0.85060   0.00000  Uiso   1.00
C68    C     0.21263   0.15162   0.83264   0.00000  Uiso   1.00
C69    C     0.21130   0.16807   0.72478   0.00000  Uiso   1.00
H70    H     0.23340   0.98134   0.73478   0.00000  Uiso   1.00
H71    H     0.30431   0.95354   0.79846   0.00000  Uiso   1.00
H72    H     0.17147   0.92719   0.79265   0.00000  Uiso   1.00
H73    H     0.22568   0.05353   0.58899   0.00000  Uiso   1.00
H74    H     0.38088   0.93809   0.90731   0.00000  Uiso   1.00
H75    H     0.10078   0.88254   0.89505   0.00000  Uiso   1.00
H76    H     0.21508   0.14895   0.46558   0.00000  Uiso   1.00
H77    H     0.21762   0.09992   0.02937   0.00000  Uiso   1.00
H78    H     0.28767   0.07863   0.10921   0.00000  Uiso   1.00
H79    H     0.15483   0.05227   0.10341   0.00000  Uiso   1.00
H80    H     0.20903   0.17861   0.89975   0.00000  Uiso   1.00
H81    H     0.36737   0.03961   0.15953   0.00000  Uiso   1.00
H82    H     0.08726   0.98406   0.14727   0.00000  Uiso   1.00
H83    H     0.20157   0.25047   0.71781   0.00000  Uiso   1.00
O84    O     0.42049   0.97269   0.08065   0.00000  Uiso   1.00
O85    O     0.05300   0.89981   0.06455   0.00000  Uiso   1.00
O86    O     0.20296   0.24934   0.50110   0.00000  Uiso   1.00
N87    N     0.36809   0.96491   0.95570   0.00000  Uiso   1.00
N88    N     0.10621   0.91297   0.94425   0.00000  Uiso   1.00
N89    N     0.21307   0.16204   0.54273   0.00000  Uiso   1.00
N90    N     0.36082   0.01954   0.09142   0.00000  Uiso   1.00
N91    N     0.09894   0.96760   0.07997   0.00000  Uiso   1.00
N92    N     0.20579   0.21667   0.67845   0.00000  Uiso   1.00
C93    C     0.72978   0.50851   0.80227   0.00000  Uiso   1.00
C94    C     0.76613   0.50985   0.87771   0.00000  Uiso   1.00
C95    C     0.80073   0.48054   0.86555   0.00000  Uiso   1.00
C96    C     0.83057   0.48737   0.94325   0.00000  Uiso   1.00
C97    C     0.88769   0.48412   0.04723   0.00000  Uiso   1.00
C98    C     0.69395   0.49553   0.87457   0.00000  Uiso   1.00
C99    C     0.66787   0.45418   0.85975   0.00000  Uiso   1.00
C100   C     0.63695   0.44896   0.93480   0.00000  Uiso   1.00
C101   C     0.58201   0.42350   0.03386   0.00000  Uiso   1.00
C102   C     0.72341   0.56417   0.76391   0.00000  Uiso   1.00
C103   C     0.72209   0.58054   0.65605   0.00000  Uiso   1.00
C104   C     0.71595   0.63311   0.63793   0.00000  Uiso   1.00
C105   C     0.70675   0.71423   0.56518   0.00000  Uiso   1.00
C106   C     0.72123   0.57275   0.96187   0.00000  Uiso   1.00
C107   C     0.76148   0.54475   0.96440   0.00000  Uiso   1.00
C108   C     0.79127   0.55162   0.04213   0.00000  Uiso   1.00
C109   C     0.82591   0.52233   0.03009   0.00000  Uiso   1.00
C110   C     0.68931   0.53042   0.96126   0.00000  Uiso   1.00
C111   C     0.65841   0.52526   0.03634   0.00000  Uiso   1.00
C112   C     0.63230   0.48392   0.02165   0.00000  Uiso   1.00
C113   C     0.71877   0.59907   0.85060   0.00000  Uiso   1.00
C114   C     0.71263   0.65162   0.83264   0.00000  Uiso   1.00
C115   C     0.71130   0.66807   0.72478   0.00000  Uiso   1.00
H116   H     0.73340   0.48134   0.73478   0.00000  Uiso   1.00
H117   H     0.80431   0.45354   0.79846   0.00000  Uiso   1.00
H118   H     0.67147   0.42719   0.79265   0.00000  Uiso   1.00
H119   H     0.72568   0.55353   0.58899   0.00000  Uiso   1.00
H120   H     0.88088   0.43809   0.90731   0.00000  Uiso   1.00
H121   H     0.60078   0.38254   0.89505   0.00000  Uiso   1.00
H122   H     0.71508   0.64895   0.46558   0.00000  Uiso   1.00
H123   H     0.71762   0.59992   0.02937   0.00000  Uiso   1.00
H124   H     0.78767   0.57863   0.10921   0.00000  Uiso   1.00
H125   H     0.65483   0.55227   0.10341   0.00000  Uiso   1.00
H126   H     0.70903   0.67861   0.89975   0.00000  Uiso   1.00
H127   H     0.86737   0.53961   0.15953   0.00000  Uiso   1.00
H128   H     0.58726   0.48406   0.14727   0.00000  Uiso   1.00
H129   H     0.70157   0.75047   0.71781   0.00000  Uiso   1.00
O130   O     0.92049   0.47269   0.08065   0.00000  Uiso   1.00
O131   O     0.55300   0.39981   0.06455   0.00000  Uiso   1.00
O132   O     0.70296   0.74934   0.50110   0.00000  Uiso   1.00
N133   N     0.86809   0.46491   0.95570   0.00000  Uiso   1.00
N134   N     0.60621   0.41297   0.94425   0.00000  Uiso   1.00
N135   N     0.71307   0.66204   0.54273   0.00000  Uiso   1.00
N136   N     0.86082   0.51954   0.09142   0.00000  Uiso   1.00
N137   N     0.59894   0.46760   0.07997   0.00000  Uiso   1.00
N138   N     0.70579   0.71667   0.67845   0.00000  Uiso   1.00
C139   C     0.72978   0.00851   0.30227   0.00000  Uiso   1.00
C140   C     0.76613   0.00985   0.37771   0.00000  Uiso   1.00
C141   C     0.80073   0.98054   0.36555   0.00000  Uiso   1.00
C142   C     0.83057   0.98737   0.44325   0.00000  Uiso   1.00
C143   C     0.88769   0.98412   0.54723   0.00000  Uiso   1.00
C144   C     0.69395   0.99553   0.37457   0.00000  Uiso   1.00
C145   C     0.66787   0.95418   0.35975   0.00000  Uiso   1.00
C146   C     0.63695   0.94896   0.43480   0.00000  Uiso   1.00
C147   C     0.58201   0.92350   0.53386   0.00000  Uiso   1.00
C148   C     0.72341   0.06417   0.26391   0.00000  Uiso   1.00
C149   C     0.72209   0.08054   0.15605   0.00000  Uiso   1.00
C150   C     0.71595   0.13311   0.13793   0.00000  Uiso   1.00
C151   C     0.70675   0.21423   0.06518   0.00000  Uiso   1.00
C152   C     0.72123   0.07275   0.46187   0.00000  Uiso   1.00
C153   C     0.76148   0.04475   0.46440   0.00000  Uiso   1.00
C154   C     0.79127   0.05162   0.54213   0.00000  Uiso   1.00
C155   C     0.82591   0.02233   0.53009   0.00000  Uiso   1.00
C156   C     0.68931   0.03042   0.46126   0.00000  Uiso   1.00
C157   C     0.65841   0.02526   0.53634   0.00000  Uiso   1.00
C158   C     0.63230   0.98392   0.52165   0.00000  Uiso   1.00
C159   C     0.71877   0.09907   0.35060   0.00000  Uiso   1.00
C160   C     0.71263   0.15162   0.33264   0.00000  Uiso   1.00
C161   C     0.71130   0.16807   0.22478   0.00000  Uiso   1.00
H162   H     0.73340   0.98134   0.23478   0.00000  Uiso   1.00
H163   H     0.80431   0.95354   0.29846   0.00000  Uiso   1.00
H164   H     0.67147   0.92719   0.29265   0.00000  Uiso   1.00
H165   H     0.72568   0.05353   0.08899   0.00000  Uiso   1.00
H166   H     0.88088   0.93809   0.40731   0.00000  Uiso   1.00
H167   H     0.60078   0.88254   0.39505   0.00000  Uiso   1.00
H168   H     0.71508   0.14895   0.96558   0.00000  Uiso   1.00
H169   H     0.71762   0.09992   0.52937   0.00000  Uiso   1.00
H170   H     0.78767   0.07863   0.60921   0.00000  Uiso   1.00
H171   H     0.65483   0.05227   0.60341   0.00000  Uiso   1.00
H172   H     0.70903   0.17861   0.39975   0.00000  Uiso   1.00
H173   H     0.86737   0.03961   0.65953   0.00000  Uiso   1.00
H174   H     0.58726   0.98406   0.64727   0.00000  Uiso   1.00
H175   H     0.70157   0.25047   0.21781   0.00000  Uiso   1.00
O176   O     0.92049   0.97269   0.58065   0.00000  Uiso   1.00
O177   O     0.55300   0.89981   0.56455   0.00000  Uiso   1.00
O178   O     0.70296   0.24934   0.00110   0.00000  Uiso   1.00
N179   N     0.86809   0.96491   0.45570   0.00000  Uiso   1.00
N180   N     0.60621   0.91297   0.44425   0.00000  Uiso   1.00
N181   N     0.71307   0.16204   0.04273   0.00000  Uiso   1.00
N182   N     0.86082   0.01954   0.59142   0.00000  Uiso   1.00
N183   N     0.59894   0.96760   0.57997   0.00000  Uiso   1.00
N184   N     0.70579   0.21667   0.17845   0.00000  Uiso   1.00
C185   C     0.77022   0.49149   0.30227   0.00000  Uiso   1.00
C186   C     0.73387   0.49015   0.37771   0.00000  Uiso   1.00
C187   C     0.69927   0.51946   0.36555   0.00000  Uiso   1.00
C188   C     0.66943   0.51263   0.44325   0.00000  Uiso   1.00
C189   C     0.61231   0.51588   0.54723   0.00000  Uiso   1.00
C190   C     0.80605   0.50447   0.37457   0.00000  Uiso   1.00
C191   C     0.83213   0.54582   0.35975   0.00000  Uiso   1.00
C192   C     0.86305   0.55104   0.43480   0.00000  Uiso   1.00
C193   C     0.91799   0.57650   0.53386   0.00000  Uiso   1.00
C194   C     0.77659   0.43583   0.26391   0.00000  Uiso   1.00
C195   C     0.77791   0.41946   0.15605   0.00000  Uiso   1.00
C196   C     0.78405   0.36689   0.13793   0.00000  Uiso   1.00
C197   C     0.79325   0.28577   0.06518   0.00000  Uiso   1.00
C198   C     0.77877   0.42725   0.46187   0.00000  Uiso   1.00
C199   C     0.73852   0.45525   0.46440   0.00000  Uiso   1.00
C200   C     0.70873   0.44838   0.54213   0.00000  Uiso   1.00
C201   C     0.67409   0.47767   0.53009   0.00000  Uiso   1.00
C202   C     0.81069   0.46958   0.46126   0.00000  Uiso   1.00
C203   C     0.84159   0.47474   0.53634   0.00000  Uiso   1.00
C204   C     0.86770   0.51608   0.52165   0.00000  Uiso   1.00
C205   C     0.78123   0.40093   0.35060   0.00000  Uiso   1.00
C206   C     0.78737   0.34838   0.33264   0.00000  Uiso   1.00
C207   C     0.78870   0.33193   0.22478   0.00000  Uiso   1.00
H208   H     0.76660   0.51866   0.23478   0.00000  Uiso   1.00
H209   H     0.69569   0.54646   0.29846   0.00000  Uiso   1.00
H210   H     0.82853   0.57281   0.29265   0.00000  Uiso   1.00
H211   H     0.77432   0.44647   0.08899   0.00000  Uiso   1.00
H212   H     0.61912   0.56191   0.40731   0.00000  Uiso   1.00
H213   H     0.89922   0.61746   0.39505   0.00000  Uiso   1.00
H214   H     0.78492   0.35105   0.96558   0.00000  Uiso   1.00
H215   H     0.78238   0.40008   0.52937   0.00000  Uiso   1.00
H216   H     0.71233   0.42137   0.60921   0.00000  Uiso   1.00
H217   H     0.84517   0.44773   0.60341   0.00000  Uiso   1.00
H218   H     0.79097   0.32139   0.39975   0.00000  Uiso   1.00
H219   H     0.63263   0.46039   0.65953   0.00000  Uiso   1.00
H220   H     0.91274   0.51594   0.64727   0.00000  Uiso   1.00
H221   H     0.79843   0.24953   0.21781   0.00000  Uiso   1.00
O222   O     0.57951   0.52731   0.58065   0.00000  Uiso   1.00
O223   O     0.94700   0.60019   0.56455   0.00000  Uiso   1.00
O224   O     0.79704   0.25066   0.00110   0.00000  Uiso   1.00
N225   N     0.63191   0.53509   0.45570   0.00000  Uiso   1.00
N226   N     0.89379   0.58703   0.44425   0.00000  Uiso   1.00
N227   N     0.78693   0.33796   0.04273   0.00000  Uiso   1.00
N228   N     0.63918   0.48046   0.59142   0.00000  Uiso   1.00
N229   N     0.90106   0.53240   0.57997   0.00000  Uiso   1.00
N230   N     0.79421   0.28333   0.17845   0.00000  Uiso   1.00
C231   C     0.77022   0.99149   0.80227   0.00000  Uiso   1.00
C232   C     0.73387   0.99015   0.87771   0.00000  Uiso   1.00
C233   C     0.69927   0.01946   0.86555   0.00000  Uiso   1.00
C234   C     0.66943   0.01263   0.94325   0.00000  Uiso   1.00
C235   C     0.61231   0.01588   0.04723   0.00000  Uiso   1.00
C236   C     0.80605   0.00447   0.87457   0.00000  Uiso   1.00
C237   C     0.83213   0.04582   0.85975   0.00000  Uiso   1.00
C238   C     0.86305   0.05104   0.93480   0.00000  Uiso   1.00
C239   C     0.91799   0.07650   0.03386   0.00000  Uiso   1.00
C240   C     0.77659   0.93583   0.76391   0.00000  Uiso   1.00
C241   C     0.77791   0.91946   0.65605   0.00000  Uiso   1.00
C242   C     0.78405   0.86689   0.63793   0.00000  Uiso   1.00
C243   C     0.79325   0.78577   0.56518   0.00000  Uiso   1.00
C244   C     0.77877   0.92725   0.96187   0.00000  Uiso   1.00
C245   C     0.73852   0.95525   0.96440   0.00000  Uiso   1.00
C246   C     0.70873   0.94838   0.04213   0.00000  Uiso   1.00
C247   C     0.67409   0.97767   0.03009   0.00000  Uiso   1.00
C248   C     0.81069   0.96958   0.96126   0.00000  Uiso   1.00
C249   C     0.84159   0.97474   0.03634   0.00000  Uiso   1.00
C250   C     0.86770   0.01608   0.02165   0.00000  Uiso   1.00
C251   C     0.78123   0.90093   0.85060   0.00000  Uiso   1.00
C252   C     0.78737   0.84838   0.83264   0.00000  Uiso   1.00
C253   C     0.78870   0.83193   0.72478   0.00000  Uiso   1.00
H254   H     0.76660   0.01866   0.73478   0.00000  Uiso   1.00
H255   H     0.69569   0.04646   0.79846   0.00000  Uiso   1.00
H256   H     0.82853   0.07281   0.79265   0.00000  Uiso   1.00
H257   H     0.77432   0.94647   0.58899   0.00000  Uiso   1.00
H258   H     0.61912   0.06191   0.90731   0.00000  Uiso   1.00
H259   H     0.89922   0.11746   0.89505   0.00000  Uiso   1.00
H260   H     0.78492   0.85105   0.46558   0.00000  Uiso   1.00
H261   H     0.78238   0.90008   0.02937   0.00000  Uiso   1.00
H262   H     0.71233   0.92137   0.10921   0.00000  Uiso   1.00
H263   H     0.84517   0.94773   0.10341   0.00000  Uiso   1.00
H264   H     0.79097   0.82139   0.89975   0.00000  Uiso   1.00
H265   H     0.63263   0.96039   0.15953   0.00000  Uiso   1.00
H266   H     0.91274   0.01594   0.14727   0.00000  Uiso   1.00
H267   H     0.79843   0.74953   0.71781   0.00000  Uiso   1.00
O268   O     0.57951   0.02731   0.08065   0.00000  Uiso   1.00
O269   O     0.94700   0.10019   0.06455   0.00000  Uiso   1.00
O270   O     0.79704   0.75066   0.50110   0.00000  Uiso   1.00
N271   N     0.63191   0.03509   0.95570   0.00000  Uiso   1.00
N272   N     0.89379   0.08703   0.94425   0.00000  Uiso   1.00
N273   N     0.78693   0.83796   0.54273   0.00000  Uiso   1.00
N274   N     0.63918   0.98046   0.09142   0.00000  Uiso   1.00
N275   N     0.90106   0.03240   0.07997   0.00000  Uiso   1.00
N276   N     0.79421   0.78333   0.67845   0.00000  Uiso   1.00
C277   C     0.27022   0.49149   0.80227   0.00000  Uiso   1.00
C278   C     0.23387   0.49015   0.87771   0.00000  Uiso   1.00
C279   C     0.19927   0.51946   0.86555   0.00000  Uiso   1.00
C280   C     0.16943   0.51263   0.94325   0.00000  Uiso   1.00
C281   C     0.11231   0.51588   0.04723   0.00000  Uiso   1.00
C282   C     0.30605   0.50447   0.87457   0.00000  Uiso   1.00
C283   C     0.33213   0.54582   0.85975   0.00000  Uiso   1.00
C284   C     0.36305   0.55104   0.93480   0.00000  Uiso   1.00
C285   C     0.41799   0.57650   0.03386   0.00000  Uiso   1.00
C286   C     0.27659   0.43583   0.76391   0.00000  Uiso   1.00
C287   C     0.27791   0.41946   0.65605   0.00000  Uiso   1.00
C288   C     0.28405   0.36689   0.63793   0.00000  Uiso   1.00
C289   C     0.29325   0.28577   0.56518   0.00000  Uiso   1.00
C290   C     0.27877   0.42725   0.96187   0.00000  Uiso   1.00
C291   C     0.23852   0.45525   0.96440   0.00000  Uiso   1.00
C292   C     0.20873   0.44838   0.04213   0.00000  Uiso   1.00
C293   C     0.17409   0.47767   0.03009   0.00000  Uiso   1.00
C294   C     0.31069   0.46958   0.96126   0.00000  Uiso   1.00
C295   C     0.34159   0.47474   0.03634   0.00000  Uiso   1.00
C296   C     0.36770   0.51608   0.02165   0.00000  Uiso   1.00
C297   C     0.28123   0.40093   0.85060   0.00000  Uiso   1.00
C298   C     0.28737   0.34838   0.83264   0.00000  Uiso   1.00
C299   C     0.28870   0.33193   0.72478   0.00000  Uiso   1.00
H300   H     0.26660   0.51866   0.73478   0.00000  Uiso   1.00
H301   H     0.19569   0.54646   0.79846   0.00000  Uiso   1.00
H302   H     0.32853   0.57281   0.79265   0.00000  Uiso   1.00
H303   H     0.27432   0.44647   0.58899   0.00000  Uiso   1.00
H304   H     0.11912   0.56191   0.90731   0.00000  Uiso   1.00
H305   H     0.39922   0.61746   0.89505   0.00000  Uiso   1.00
H306   H     0.28492   0.35105   0.46558   0.00000  Uiso   1.00
H307   H     0.28238   0.40008   0.02937   0.00000  Uiso   1.00
H308   H     0.21233   0.42137   0.10921   0.00000  Uiso   1.00
H309   H     0.34517   0.44773   0.10341   0.00000  Uiso   1.00
H310   H     0.29097   0.32139   0.89975   0.00000  Uiso   1.00
H311   H     0.13263   0.46039   0.15953   0.00000  Uiso   1.00
H312   H     0.41274   0.51594   0.14727   0.00000  Uiso   1.00
H313   H     0.29843   0.24953   0.71781   0.00000  Uiso   1.00
O314   O     0.07951   0.52731   0.08065   0.00000  Uiso   1.00
O315   O     0.44700   0.60019   0.06455   0.00000  Uiso   1.00
O316   O     0.29704   0.25066   0.50110   0.00000  Uiso   1.00
N317   N     0.13191   0.53509   0.95570   0.00000  Uiso   1.00
N318   N     0.39379   0.58703   0.94425   0.00000  Uiso   1.00
N319   N     0.28693   0.33796   0.54273   0.00000  Uiso   1.00
N320   N     0.13918   0.48046   0.09142   0.00000  Uiso   1.00
N321   N     0.40106   0.53240   0.07997   0.00000  Uiso   1.00
N322   N     0.29421   0.28333   0.67845   0.00000  Uiso   1.00
C323   C     0.27022   0.99149   0.30227   0.00000  Uiso   1.00
C324   C     0.23387   0.99015   0.37771   0.00000  Uiso   1.00
C325   C     0.19927   0.01946   0.36555   0.00000  Uiso   1.00
C326   C     0.16943   0.01263   0.44325   0.00000  Uiso   1.00
C327   C     0.11231   0.01588   0.54723   0.00000  Uiso   1.00
C328   C     0.30605   0.00447   0.37457   0.00000  Uiso   1.00
C329   C     0.33213   0.04582   0.35975   0.00000  Uiso   1.00
C330   C     0.36305   0.05104   0.43480   0.00000  Uiso   1.00
C331   C     0.41799   0.07650   0.53386   0.00000  Uiso   1.00
C332   C     0.27659   0.93583   0.26391   0.00000  Uiso   1.00
C333   C     0.27791   0.91946   0.15605   0.00000  Uiso   1.00
C334   C     0.28405   0.86689   0.13793   0.00000  Uiso   1.00
C335   C     0.29325   0.78577   0.06518   0.00000  Uiso   1.00
C336   C     0.27877   0.92725   0.46187   0.00000  Uiso   1.00
C337   C     0.23852   0.95525   0.46440   0.00000  Uiso   1.00
C338   C     0.20873   0.94838   0.54213   0.00000  Uiso   1.00
C339   C     0.17409   0.97767   0.53009   0.00000  Uiso   1.00
C340   C     0.31069   0.96958   0.46126   0.00000  Uiso   1.00
C341   C     0.34159   0.97474   0.53634   0.00000  Uiso   1.00
C342   C     0.36770   0.01608   0.52165   0.00000  Uiso   1.00
C343   C     0.28123   0.90093   0.35060   0.00000  Uiso   1.00
C344   C     0.28737   0.84838   0.33264   0.00000  Uiso   1.00
C345   C     0.28870   0.83193   0.22478   0.00000  Uiso   1.00
H346   H     0.26660   0.01866   0.23478   0.00000  Uiso   1.00
H347   H     0.19569   0.04646   0.29846   0.00000  Uiso   1.00
H348   H     0.32853   0.07281   0.29265   0.00000  Uiso   1.00
H349   H     0.27432   0.94647   0.08899   0.00000  Uiso   1.00
H350   H     0.11912   0.06191   0.40731   0.00000  Uiso   1.00
H351   H     0.39922   0.11746   0.39505   0.00000  Uiso   1.00
H352   H     0.28492   0.85105   0.96558   0.00000  Uiso   1.00
H353   H     0.28238   0.90008   0.52937   0.00000  Uiso   1.00
H354   H     0.21233   0.92137   0.60921   0.00000  Uiso   1.00
H355   H     0.34517   0.94773   0.60341   0.00000  Uiso   1.00
H356   H     0.29097   0.82139   0.39975   0.00000  Uiso   1.00
H357   H     0.13263   0.96039   0.65953   0.00000  Uiso   1.00
H358   H     0.41274   0.01594   0.64727   0.00000  Uiso   1.00
H359   H     0.29843   0.74953   0.21781   0.00000  Uiso   1.00
O360   O     0.07951   0.02731   0.58065   0.00000  Uiso   1.00
O361   O     0.44700   0.10019   0.56455   0.00000  Uiso   1.00
O362   O     0.29704   0.75066   0.00110   0.00000  Uiso   1.00
N363   N     0.13191   0.03509   0.45570   0.00000  Uiso   1.00
N364   N     0.39379   0.08703   0.44425   0.00000  Uiso   1.00
N365   N     0.28693   0.83796   0.04273   0.00000  Uiso   1.00
N366   N     0.13918   0.98046   0.59142   0.00000  Uiso   1.00
N367   N     0.40106   0.03240   0.57997   0.00000  Uiso   1.00
N368   N     0.29421   0.78333   0.17845   0.00000  Uiso   1.00
C369   C     0.47978   0.74149   0.55227   0.00000  Uiso   1.00
C370   C     0.51613   0.74015   0.62771   0.00000  Uiso   1.00
C371   C     0.55073   0.76946   0.61555   0.00000  Uiso   1.00
C372   C     0.58057   0.76263   0.69325   0.00000  Uiso   1.00
C373   C     0.63769   0.76588   0.79723   0.00000  Uiso   1.00
C374   C     0.44395   0.75447   0.62457   0.00000  Uiso   1.00
C375   C     0.41787   0.79582   0.60975   0.00000  Uiso   1.00
C376   C     0.38695   0.80104   0.68480   0.00000  Uiso   1.00
C377   C     0.33201   0.82650   0.78386   0.00000  Uiso   1.00
C378   C     0.47341   0.68583   0.51391   0.00000  Uiso   1.00
C379   C     0.47209   0.66946   0.40605   0.00000  Uiso   1.00
C380   C     0.46595   0.61689   0.38793   0.00000  Uiso   1.00
C381   C     0.45675   0.53577   0.31518   0.00000  Uiso   1.00
C382   C     0.47123   0.67725   0.71187   0.00000  Uiso   1.00
C383   C     0.51148   0.70525   0.71440   0.00000  Uiso   1.00
C384   C     0.54127   0.69838   0.79213   0.00000  Uiso   1.00
C385   C     0.57591   0.72767   0.78009   0.00000  Uiso   1.00
C386   C     0.43931   0.71958   0.71126   0.00000  Uiso   1.00
C387   C     0.40841   0.72474   0.78634   0.00000  Uiso   1.00
C388   C     0.38230   0.76608   0.77165   0.00000  Uiso   1.00
C389   C     0.46877   0.65093   0.60060   0.00000  Uiso   1.00
C390   C     0.46263   0.59838   0.58264   0.00000  Uiso   1.00
C391   C     0.46130   0.58193   0.47478   0.00000  Uiso   1.00
H392   H     0.48340   0.76866   0.48478   0.00000  Uiso   1.00
H393   H     0.55431   0.79646   0.54846   0.00000  Uiso   1.00
H394   H     0.42147   0.82281   0.54265   0.00000  Uiso   1.00
H395   H     0.47568   0.69647   0.33899   0.00000  Uiso   1.00
H396   H     0.63088   0.81191   0.65731   0.00000  Uiso   1.00
H397   H     0.35078   0.86746   0.64505   0.00000  Uiso   1.00
H398   H     0.46508   0.60105   0.21558   0.00000  Uiso   1.00
H399   H     0.46762   0.65008   0.77937   0.00000  Uiso   1.00
H400   H     0.53767   0.67137   0.85921   0.00000  Uiso   1.00
H401   H     0.40483   0.69773   0.85341   0.00000  Uiso   1.00
H402   H     0.45903   0.57139   0.64975   0.00000  Uiso   1.00
H403   H     0.61737   0.71039   0.90953   0.00000  Uiso   1.00
H404   H     0.33726   0.76594   0.89727   0.00000  Uiso   1.00
H405   H     0.45157   0.49953   0.46781   0.00000  Uiso   1.00
O406   O     0.67049   0.77731   0.83065   0.00000  Uiso   1.00
O407   O     0.30300   0.85019   0.81455   0.00000  Uiso   1.00
O408   O     0.45296   0.50066   0.25110   0.00000  Uiso   1.00
N409   N     0.61809   0.78509   0.70570   0.00000  Uiso   1.00
N410   N     0.35621   0.83703   0.69425   0.00000  Uiso   1.00
N411   N     0.46307   0.58796   0.29273   0.00000  Uiso   1.00
N412   N     0.61082   0.73046   0.84142   0.00000  Uiso   1.00
N413   N     0.34894   0.78240   0.82997   0.00000  Uiso   1.00
N414   N     0.45579   0.53333   0.42845   0.00000  Uiso   1.00
C415   C     0.47978   0.24149   0.05227   0.00000  Uiso   1.00
C416   C     0.51613   0.24015   0.12771   0.00000  Uiso   1.00
C417   C     0.55073   0.26946   0.11555   0.00000  Uiso   1.00
C418   C     0.58057   0.26263   0.19325   0.00000  Uiso   1.00
C419   C     0.63769   0.26588   0.29723   0.00000  Uiso   1.00
C420   C     0.44395   0.25447   0.12457   0.00000  Uiso   1.00
C421   C     0.41787   0.29582   0.10975   0.00000  Uiso   1.00
C422   C     0.38695   0.30104   0.18480   0.00000  Uiso   1.00
C423   C     0.33201   0.32650   0.28386   0.00000  Uiso   1.00
C424   C     0.47341   0.18583   0.01391   0.00000  Uiso   1.00
C425   C     0.47209   0.16946   0.90605   0.00000  Uiso   1.00
C426   C     0.46595   0.11689   0.88793   0.00000  Uiso   1.00
C427   C     0.45675   0.03577   0.81518   0.00000  Uiso   1.00
C428   C     0.47123   0.17725   0.21187   0.00000  Uiso   1.00
C429   C     0.51148   0.20525   0.21440   0.00000  Uiso   1.00
C430   C     0.54127   0.19838   0.29213   0.00000  Uiso   1.00
C431   C     0.57591   0.22767   0.28009   0.00000  Uiso   1.00
C432   C     0.43931   0.21958   0.21126   0.00000  Uiso   1.00
C433   C     0.40841   0.22474   0.28634   0.00000  Uiso   1.00
C434   C     0.38230   0.26608   0.27165   0.00000  Uiso   1.00
C435   C     0.46877   0.15093   0.10060   0.00000  Uiso   1.00
C436   C     0.46263   0.09838   0.08264   0.00000  Uiso   1.00
C437   C     0.46130   0.08193   0.97478   0.00000  Uiso   1.00
H438   H     0.48340   0.26866   0.98478   0.00000  Uiso   1.00
H439   H     0.55431   0.29646   0.04846   0.00000  Uiso   1.00
H440   H     0.42147   0.32281   0.04265   0.00000  Uiso   1.00
H441   H     0.47568   0.19647   0.83899   0.00000  Uiso   1.00
H442   H     0.63088   0.31191   0.15731   0.00000  Uiso   1.00
H443   H     0.35078   0.36746   0.14505   0.00000  Uiso   1.00
H444   H     0.46508   0.10105   0.71558   0.00000  Uiso   1.00
H445   H     0.46762   0.15008   0.27937   0.00000  Uiso   1.00
H446   H     0.53767   0.17137   0.35921   0.00000  Uiso   1.00
H447   H     0.40483   0.19773   0.35341   0.00000  Uiso   1.00
H448   H     0.45903   0.07139   0.14975   0.00000  Uiso   1.00
H449   H     0.61737   0.21039   0.40953   0.00000  Uiso   1.00
H450   H     0.33726   0.26594   0.39727   0.00000  Uiso   1.00
H451   H     0.45157   0.99953   0.96781   0.00000  Uiso   1.00
O452   O     0.67049   0.27731   0.33065   0.00000  Uiso   1.00
O453   O     0.30300   0.35019   0.31455   0.00000  Uiso   1.00
O454   O     0.45296   0.00066   0.75110   0.00000  Uiso   1.00
N455   N     0.61809   0.28509   0.20570   0.00000  Uiso   1.00
N456   N     0.35621   0.33703   0.19425   0.00000  Uiso   1.00
N457   N     0.46307   0.08796   0.79273   0.00000  Uiso   1.00
N458   N     0.61082   0.23046   0.34142   0.00000  Uiso   1.00
N459   N     0.34894   0.28240   0.32997   0.00000  Uiso   1.00
N460   N     0.45579   0.03333   0.92845   0.00000  Uiso   1.00
C461   C     0.97978   0.74149   0.05227   0.00000  Uiso   1.00
C462   C     0.01613   0.74015   0.12771   0.00000  Uiso   1.00
C463   C     0.05073   0.76946   0.11555   0.00000  Uiso   1.00
C464   C     0.08057   0.76263   0.19325   0.00000  Uiso   1.00
C465   C     0.13769   0.76588   0.29723   0.00000  Uiso   1.00
C466   C     0.94395   0.75447   0.12457   0.00000  Uiso   1.00
C467   C     0.91787   0.79582   0.10975   0.00000  Uiso   1.00
C468   C     0.88695   0.80104   0.18480   0.00000  Uiso   1.00
C469   C     0.83201   0.82650   0.28386   0.00000  Uiso   1.00
C470   C     0.97341   0.68583   0.01391   0.00000  Uiso   1.00
C471   C     0.97209   0.66946   0.90605   0.00000  Uiso   1.00
C472   C     0.96595   0.61689   0.88793   0.00000  Uiso   1.00
C473   C     0.95675   0.53577   0.81518   0.00000  Uiso   1.00
C474   C     0.97123   0.67725   0.21187   0.00000  Uiso   1.00
C475   C     0.01148   0.70525   0.21440   0.00000  Uiso   1.00
C476   C     0.04127   0.69838   0.29213   0.00000  Uiso   1.00
C477   C     0.07591   0.72767   0.28009   0.00000  Uiso   1.00
C478   C     0.93931   0.71958   0.21126   0.00000  Uiso   1.00
C479   C     0.90841   0.72474   0.28634   0.00000  Uiso   1.00
C480   C     0.88230   0.76608   0.27165   0.00000  Uiso   1.00
C481   C     0.96877   0.65093   0.10060   0.00000  Uiso   1.00
C482   C     0.96263   0.59838   0.08264   0.00000  Uiso   1.00
C483   C     0.96130   0.58193   0.97478   0.00000  Uiso   1.00
H484   H     0.98340   0.76866   0.98478   0.00000  Uiso   1.00
H485   H     0.05431   0.79646   0.04846   0.00000  Uiso   1.00
H486   H     0.92147   0.82281   0.04265   0.00000  Uiso   1.00
H487   H     0.97568   0.69647   0.83899   0.00000  Uiso   1.00
H488   H     0.13088   0.81191   0.15731   0.00000  Uiso   1.00
H489   H     0.85078   0.86746   0.14505   0.00000  Uiso   1.00
H490   H     0.96508   0.60105   0.71558   0.00000  Uiso   1.00
H491   H     0.96762   0.65008   0.27937   0.00000  Uiso   1.00
H492   H     0.03767   0.67137   0.35921   0.00000  Uiso   1.00
H493   H     0.90483   0.69773   0.35341   0.00000  Uiso   1.00
H494   H     0.95903   0.57139   0.14975   0.00000  Uiso   1.00
H495   H     0.11737   0.71039   0.40953   0.00000  Uiso   1.00
H496   H     0.83726   0.76594   0.39727   0.00000  Uiso   1.00
H497   H     0.95157   0.49953   0.96781   0.00000  Uiso   1.00
O498   O     0.17049   0.77731   0.33065   0.00000  Uiso   1.00
O499   O     0.80300   0.85019   0.31455   0.00000  Uiso   1.00
O500   O     0.95296   0.50066   0.75110   0.00000  Uiso   1.00
N501   N     0.11809   0.78509   0.20570   0.00000  Uiso   1.00
N502   N     0.85621   0.83703   0.19425   0.00000  Uiso   1.00
N503   N     0.96307   0.58796   0.79273   0.00000  Uiso   1.00
N504   N     0.11082   0.73046   0.34142   0.00000  Uiso   1.00
N505   N     0.84894   0.78240   0.32997   0.00000  Uiso   1.00
N506   N     0.95579   0.53333   0.92845   0.00000  Uiso   1.00
C507   C     0.97978   0.24149   0.55227   0.00000  Uiso   1.00
C508   C     0.01613   0.24015   0.62771   0.00000  Uiso   1.00
C509   C     0.05073   0.26946   0.61555   0.00000  Uiso   1.00
C510   C     0.08057   0.26263   0.69325   0.00000  Uiso   1.00
C511   C     0.13769   0.26588   0.79723   0.00000  Uiso   1.00
C512   C     0.94395   0.25447   0.62457   0.00000  Uiso   1.00
C513   C     0.91787   0.29582   0.60975   0.00000  Uiso   1.00
C514   C     0.88695   0.30104   0.68480   0.00000  Uiso   1.00
C515   C     0.83201   0.32650   0.78386   0.00000  Uiso   1.00
C516   C     0.97341   0.18583   0.51391   0.00000  Uiso   1.00
C517   C     0.97209   0.16946   0.40605   0.00000  Uiso   1.00
C518   C     0.96595   0.11689   0.38793   0.00000  Uiso   1.00
C519   C     0.95675   0.03577   0.31518   0.00000  Uiso   1.00
C520   C     0.97123   0.17725   0.71187   0.00000  Uiso   1.00
C521   C     0.01148   0.20525   0.71440   0.00000  Uiso   1.00
C522   C     0.04127   0.19838   0.79213   0.00000  Uiso   1.00
C523   C     0.07591   0.22767   0.78009   0.00000  Uiso   1.00
C524   C     0.93931   0.21958   0.71126   0.00000  Uiso   1.00
C525   C     0.90841   0.22474   0.78634   0.00000  Uiso   1.00
C526   C     0.88230   0.26608   0.77165   0.00000  Uiso   1.00
C527   C     0.96877   0.15093   0.60060   0.00000  Uiso   1.00
C528   C     0.96263   0.09838   0.58264   0.00000  Uiso   1.00
C529   C     0.96130   0.08193   0.47478   0.00000  Uiso   1.00
H530   H     0.98340   0.26866   0.48478   0.00000  Uiso   1.00
H531   H     0.05431   0.29646   0.54846   0.00000  Uiso   1.00
H532   H     0.92147   0.32281   0.54265   0.00000  Uiso   1.00
H533   H     0.97568   0.19647   0.33899   0.00000  Uiso   1.00
H534   H     0.13088   0.31191   0.65731   0.00000  Uiso   1.00
H535   H     0.85078   0.36746   0.64505   0.00000  Uiso   1.00
H536   H     0.96508   0.10105   0.21558   0.00000  Uiso   1.00
H537   H     0.96762   0.15008   0.77937   0.00000  Uiso   1.00
H538   H     0.03767   0.17137   0.85921   0.00000  Uiso   1.00
H539   H     0.90483   0.19773   0.85341   0.00000  Uiso   1.00
H540   H     0.95903   0.07139   0.64975   0.00000  Uiso   1.00
H541   H     0.11737   0.21039   0.90953   0.00000  Uiso   1.00
H542   H     0.83726   0.26594   0.89727   0.00000  Uiso   1.00
H543   H     0.95157   0.99953   0.46781   0.00000  Uiso   1.00
O544   O     0.17049   0.27731   0.83065   0.00000  Uiso   1.00
O545   O     0.80300   0.35019   0.81455   0.00000  Uiso   1.00
O546   O     0.95296   0.00066   0.25110   0.00000  Uiso   1.00
N547   N     0.11809   0.28509   0.70570   0.00000  Uiso   1.00
N548   N     0.85621   0.33703   0.69425   0.00000  Uiso   1.00
N549   N     0.96307   0.08796   0.29273   0.00000  Uiso   1.00
N550   N     0.11082   0.23046   0.84142   0.00000  Uiso   1.00
N551   N     0.84894   0.28240   0.82997   0.00000  Uiso   1.00
N552   N     0.95579   0.03333   0.42845   0.00000  Uiso   1.00
C553   C     0.02022   0.75851   0.55227   0.00000  Uiso   1.00
C554   C     0.98387   0.75985   0.62771   0.00000  Uiso   1.00
C555   C     0.94927   0.73054   0.61555   0.00000  Uiso   1.00
C556   C     0.91943   0.73737   0.69325   0.00000  Uiso   1.00
C557   C     0.86231   0.73412   0.79723   0.00000  Uiso   1.00
C558   C     0.05605   0.74553   0.62457   0.00000  Uiso   1.00
C559   C     0.08213   0.70418   0.60975   0.00000  Uiso   1.00
C560   C     0.11305   0.69896   0.68480   0.00000  Uiso   1.00
C561   C     0.16799   0.67350   0.78386   0.00000  Uiso   1.00
C562   C     0.02659   0.81417   0.51391   0.00000  Uiso   1.00
C563   C     0.02791   0.83054   0.40605   0.00000  Uiso   1.00
C564   C     0.03405   0.88311   0.38793   0.00000  Uiso   1.00
C565   C     0.04325   0.96423   0.31518   0.00000  Uiso   1.00
C566   C     0.02877   0.82275   0.71187   0.00000  Uiso   1.00
C567   C     0.98852   0.79475   0.71440   0.00000  Uiso   1.00
C568   C     0.95873   0.80162   0.79213   0.00000  Uiso   1.00
C569   C     0.92409   0.77233   0.78009   0.00000  Uiso   1.00
C570   C     0.06069   0.78042   0.71126   0.00000  Uiso   1.00
C571   C     0.09159   0.77526   0.78634   0.00000  Uiso   1.00
C572   C     0.11770   0.73392   0.77165   0.00000  Uiso   1.00
C573   C     0.03123   0.84907   0.60060   0.00000  Uiso   1.00
C574   C     0.03737   0.90162   0.58264   0.00000  Uiso   1.00
C575   C     0.03870   0.91807   0.47478   0.00000  Uiso   1.00
H576   H     0.01660   0.73134   0.48478   0.00000  Uiso   1.00
H577   H     0.94569   0.70354   0.54846   0.00000  Uiso   1.00
H578   H     0.07853   0.67719   0.54265   0.00000  Uiso   1.00
H579   H     0.02432   0.80353   0.33899   0.00000  Uiso   1.00
H580   H     0.86912   0.68809   0.65731   0.00000  Uiso   1.00
H581   H     0.14922   0.63254   0.64505   0.00000  Uiso   1.00
H582   H     0.03492   0.89895   0.21558   0.00000  Uiso   1.00
H583   H     0.03238   0.84992   0.77937   0.00000  Uiso   1.00
H584   H     0.96233   0.82863   0.85921   0.00000  Uiso   1.00
H585   H     0.09517   0.80227   0.85341   0.00000  Uiso   1.00
H586   H     0.04097   0.92861   0.64975   0.00000  Uiso   1.00
H587   H     0.88263   0.78961   0.90953   0.00000  Uiso   1.00
H588   H     0.16274   0.73406   0.89727   0.00000  Uiso   1.00
H589   H     0.04843   0.00047   0.46781   0.00000  Uiso   1.00
O590   O     0.82951   0.72269   0.83065   0.00000  Uiso   1.00
O591   O     0.19700   0.64981   0.81455   0.00000  Uiso   1.00
O592   O     0.04704   0.99934   0.25110   0.00000  Uiso   1.00
N593   N     0.88191   0.71491   0.70570   0.00000  Uiso   1.00
N594   N     0.14379   0.66297   0.69425   0.00000  Uiso   1.00
N595   N     0.03693   0.91204   0.29273   0.00000  Uiso   1.00
N596   N     0.88918   0.76954   0.84142   0.00000  Uiso   1.00
N597   N     0.15106   0.71760   0.82997   0.00000  Uiso   1.00
N598   N     0.04421   0.96667   0.42845   0.00000  Uiso   1.00
C599   C     0.02022   0.25851   0.05227   0.00000  Uiso   1.00
C600   C     0.98387   0.25985   0.12771   0.00000  Uiso   1.00
C601   C     0.94927   0.23054   0.11555   0.00000  Uiso   1.00
C602   C     0.91943   0.23737   0.19325   0.00000  Uiso   1.00
C603   C     0.86231   0.23412   0.29723   0.00000  Uiso   1.00
C604   C     0.05605   0.24553   0.12457   0.00000  Uiso   1.00
C605   C     0.08213   0.20418   0.10975   0.00000  Uiso   1.00
C606   C     0.11305   0.19896   0.18480   0.00000  Uiso   1.00
C607   C     0.16799   0.17350   0.28386   0.00000  Uiso   1.00
C608   C     0.02659   0.31417   0.01391   0.00000  Uiso   1.00
C609   C     0.02791   0.33054   0.90605   0.00000  Uiso   1.00
C610   C     0.03405   0.38311   0.88793   0.00000  Uiso   1.00
C611   C     0.04325   0.46423   0.81518   0.00000  Uiso   1.00
C612   C     0.02877   0.32275   0.21187   0.00000  Uiso   1.00
C613   C     0.98852   0.29475   0.21440   0.00000  Uiso   1.00
C614   C     0.95873   0.30162   0.29213   0.00000  Uiso   1.00
C615   C     0.92409   0.27233   0.28009   0.00000  Uiso   1.00
C616   C     0.06069   0.28042   0.21126   0.00000  Uiso   1.00
C617   C     0.09159   0.27526   0.28634   0.00000  Uiso   1.00
C618   C     0.11770   0.23392   0.27165   0.00000  Uiso   1.00
C619   C     0.03123   0.34907   0.10060   0.00000  Uiso   1.00
C620   C     0.03737   0.40162   0.08264   0.00000  Uiso   1.00
C621   C     0.03870   0.41807   0.97478   0.00000  Uiso   1.00
H622   H     0.01660   0.23134   0.98478   0.00000  Uiso   1.00
H623   H     0.94569   0.20354   0.04846   0.00000  Uiso   1.00
H624   H     0.07853   0.17719   0.04265   0.00000  Uiso   1.00
H625   H     0.02432   0.30353   0.83899   0.00000  Uiso   1.00
H626   H     0.86912   0.18809   0.15731   0.00000  Uiso   1.00
H627   H     0.14922   0.13254   0.14505   0.00000  Uiso   1.00
H628   H     0.03492   0.39895   0.71558   0.00000  Uiso   1.00
H629   H     0.03238   0.34992   0.27937   0.00000  Uiso   1.00
H630   H     0.96233   0.32863   0.35921   0.00000  Uiso   1.00
H631   H     0.09517   0.30227   0.35341   0.00000  Uiso   1.00
H632   H     0.04097   0.42861   0.14975   0.00000  Uiso   1.00
H633   H     0.88263   0.28961   0.40953   0.00000  Uiso   1.00
H634   H     0.16274   0.23406   0.39727   0.00000  Uiso   1.00
H635   H     0.04843   0.50047   0.96781   0.00000  Uiso   1.00
O636   O     0.82951   0.22269   0.33065   0.00000  Uiso   1.00
O637   O     0.19700   0.14981   0.31455   0.00000  Uiso   1.00
O638   O     0.04704   0.49934   0.75110   0.00000  Uiso   1.00
N639   N     0.88191   0.21491   0.20570   0.00000  Uiso   1.00
N640   N     0.14379   0.16297   0.19425   0.00000  Uiso   1.00
N641   N     0.03693   0.41204   0.79273   0.00000  Uiso   1.00
N642   N     0.88918   0.26954   0.34142   0.00000  Uiso   1.00
N643   N     0.15106   0.21760   0.32997   0.00000  Uiso   1.00
N644   N     0.04421   0.46667   0.92845   0.00000  Uiso   1.00
C645   C     0.52022   0.75851   0.05227   0.00000  Uiso   1.00
C646   C     0.48387   0.75985   0.12771   0.00000  Uiso   1.00
C647   C     0.44927   0.73054   0.11555   0.00000  Uiso   1.00
C648   C     0.41943   0.73737   0.19325   0.00000  Uiso   1.00
C649   C     0.36231   0.73412   0.29723   0.00000  Uiso   1.00
C650   C     0.55605   0.74553   0.12457   0.00000  Uiso   1.00
C651   C     0.58213   0.70418   0.10975   0.00000  Uiso   1.00
C652   C     0.61305   0.69896   0.18480   0.00000  Uiso   1.00
C653   C     0.66799   0.67350   0.28386   0.00000  Uiso   1.00
C654   C     0.52659   0.81417   0.01391   0.00000  Uiso   1.00
C655   C     0.52791   0.83054   0.90605   0.00000  Uiso   1.00
C656   C     0.53405   0.88311   0.88793   0.00000  Uiso   1.00
C657   C     0.54325   0.96423   0.81518   0.00000  Uiso   1.00
C658   C     0.52877   0.82275   0.21187   0.00000  Uiso   1.00
C659   C     0.48852   0.79475   0.21440   0.00000  Uiso   1.00
C660   C     0.45873   0.80162   0.29213   0.00000  Uiso   1.00
C661   C     0.42409   0.77233   0.28009   0.00000  Uiso   1.00
C662   C     0.56069   0.78042   0.21126   0.00000  Uiso   1.00
C663   C     0.59159   0.77526   0.28634   0.00000  Uiso   1.00
C664   C     0.61770   0.73392   0.27165   0.00000  Uiso   1.00
C665   C     0.53123   0.84907   0.10060   0.00000  Uiso   1.00
C666   C     0.53737   0.90162   0.08264   0.00000  Uiso   1.00
C667   C     0.53870   0.91807   0.97478   0.00000  Uiso   1.00
H668   H     0.51660   0.73134   0.98478   0.00000  Uiso   1.00
H669   H     0.44569   0.70354   0.04846   0.00000  Uiso   1.00
H670   H     0.57853   0.67719   0.04265   0.00000  Uiso   1.00
H671   H     0.52432   0.80353   0.83899   0.00000  Uiso   1.00
H672   H     0.36912   0.68809   0.15731   0.00000  Uiso   1.00
H673   H     0.64922   0.63254   0.14505   0.00000  Uiso   1.00
H674   H     0.53492   0.89895   0.71558   0.00000  Uiso   1.00
H675   H     0.53238   0.84992   0.27937   0.00000  Uiso   1.00
H676   H     0.46233   0.82863   0.35921   0.00000  Uiso   1.00
H677   H     0.59517   0.80227   0.35341   0.00000  Uiso   1.00
H678   H     0.54097   0.92861   0.14975   0.00000  Uiso   1.00
H679   H     0.38263   0.78961   0.40953   0.00000  Uiso   1.00
H680   H     0.66274   0.73406   0.39727   0.00000  Uiso   1.00
H681   H     0.54843   0.00047   0.96781   0.00000  Uiso   1.00
O682   O     0.32951   0.72269   0.33065   0.00000  Uiso   1.00
O683   O     0.69700   0.64981   0.31455   0.00000  Uiso   1.00
O684   O     0.54704   0.99934   0.75110   0.00000  Uiso   1.00
N685   N     0.38191   0.71491   0.20570   0.00000  Uiso   1.00
N686   N     0.64379   0.66297   0.19425   0.00000  Uiso   1.00
N687   N     0.53693   0.91204   0.79273   0.00000  Uiso   1.00
N688   N     0.38918   0.76954   0.34142   0.00000  Uiso   1.00
N689   N     0.65106   0.71760   0.32997   0.00000  Uiso   1.00
N690   N     0.54421   0.96667   0.92845   0.00000  Uiso   1.00
C691   C     0.52022   0.25851   0.55227   0.00000  Uiso   1.00
C692   C     0.48387   0.25985   0.62771   0.00000  Uiso   1.00
C693   C     0.44927   0.23054   0.61555   0.00000  Uiso   1.00
C694   C     0.41943   0.23737   0.69325   0.00000  Uiso   1.00
C695   C     0.36231   0.23412   0.79723   0.00000  Uiso   1.00
C696   C     0.55605   0.24553   0.62457   0.00000  Uiso   1.00
C697   C     0.58213   0.20418   0.60975   0.00000  Uiso   1.00
C698   C     0.61305   0.19896   0.68480   0.00000  Uiso   1.00
C699   C     0.66799   0.17350   0.78386   0.00000  Uiso   1.00
C700   C     0.52659   0.31417   0.51391   0.00000  Uiso   1.00
C701   C     0.52791   0.33054   0.40605   0.00000  Uiso   1.00
C702   C     0.53405   0.38311   0.38793   0.00000  Uiso   1.00
C703   C     0.54325   0.46423   0.31518   0.00000  Uiso   1.00
C704   C     0.52877   0.32275   0.71187   0.00000  Uiso   1.00
C705   C     0.48852   0.29475   0.71440   0.00000  Uiso   1.00
C706   C     0.45873   0.30162   0.79213   0.00000  Uiso   1.00
C707   C     0.42409   0.27233   0.78009   0.00000  Uiso   1.00
C708   C     0.56069   0.28042   0.71126   0.00000  Uiso   1.00
C709   C     0.59159   0.27526   0.78634   0.00000  Uiso   1.00
C710   C     0.61770   0.23392   0.77165   0.00000  Uiso   1.00
C711   C     0.53123   0.34907   0.60060   0.00000  Uiso   1.00
C712   C     0.53737   0.40162   0.58264   0.00000  Uiso   1.00
C713   C     0.53870   0.41807   0.47478   0.00000  Uiso   1.00
H714   H     0.51660   0.23134   0.48478   0.00000  Uiso   1.00
H715   H     0.44569   0.20354   0.54846   0.00000  Uiso   1.00
H716   H     0.57853   0.17719   0.54265   0.00000  Uiso   1.00
H717   H     0.52432   0.30353   0.33899   0.00000  Uiso   1.00
H718   H     0.36912   0.18809   0.65731   0.00000  Uiso   1.00
H719   H     0.64922   0.13254   0.64505   0.00000  Uiso   1.00
H720   H     0.53492   0.39895   0.21558   0.00000  Uiso   1.00
H721   H     0.53238   0.34992   0.77937   0.00000  Uiso   1.00
H722   H     0.46233   0.32863   0.85921   0.00000  Uiso   1.00
H723   H     0.59517   0.30227   0.85341   0.00000  Uiso   1.00
H724   H     0.54097   0.42861   0.64975   0.00000  Uiso   1.00
H725   H     0.38263   0.28961   0.90953   0.00000  Uiso   1.00
H726   H     0.66274   0.23406   0.89727   0.00000  Uiso   1.00
H727   H     0.54843   0.50047   0.46781   0.00000  Uiso   1.00
O728   O     0.32951   0.22269   0.83065   0.00000  Uiso   1.00
O729   O     0.69700   0.14981   0.81455   0.00000  Uiso   1.00
O730   O     0.54704   0.49934   0.25110   0.00000  Uiso   1.00
N731   N     0.38191   0.21491   0.70570   0.00000  Uiso   1.00
N732   N     0.64379   0.16297   0.69425   0.00000  Uiso   1.00
N733   N     0.53693   0.41204   0.29273   0.00000  Uiso   1.00
N734   N     0.38918   0.26954   0.84142   0.00000  Uiso   1.00
N735   N     0.65106   0.21760   0.82997   0.00000  Uiso   1.00
N736   N     0.54421   0.46667   0.42845   0.00000  Uiso   1.00
