data_job_02372
_audit_creation_date              2018-12-19
_audit_creation_method            'Materials Studio'
_symmetry_space_group_name_H-M    'P1'
_symmetry_Int_Tables_number       1
_symmetry_cell_setting            triclinic
loop_
_symmetry_equiv_pos_as_xyz
  x,y,z
_cell_length_a                    17.3322
_cell_length_b                    17.3322
_cell_length_c                    42.6509
_cell_angle_alpha                 90.0000
_cell_angle_beta                  90.0000
_cell_angle_gamma                 90.0000
loop_
_atom_site_label
_atom_site_type_symbol
_atom_site_fract_x
_atom_site_fract_y
_atom_site_fract_z
_atom_site_U_iso_or_equiv
_atom_site_adp_type
_atom_site_occupancy
C1     C     0.58569   0.59428   0.33135   0.00000  Uiso   1.00
C2     C     0.58908   0.57466   0.36618   0.00000  Uiso   1.00
C3     C     0.60123   0.50177   0.37871   0.00000  Uiso   1.00
C4     C     0.60233   0.49583   0.41117   0.00000  Uiso   1.00
C5     C     0.60918   0.45552   0.46233   0.00000  Uiso   1.00
C6     C     0.50793   0.63336   0.32610   0.00000  Uiso   1.00
C7     C     0.45185   0.60983   0.30494   0.00000  Uiso   1.00
C8     C     0.38464   0.65330   0.30365   0.00000  Uiso   1.00
C9     C     0.26552   0.70416   0.29257   0.00000  Uiso   1.00
C10    C     0.64659   0.65639   0.32601   0.00000  Uiso   1.00
C11    C     0.70708   0.65225   0.30476   0.00000  Uiso   1.00
C12    C     0.75660   0.71513   0.30339   0.00000  Uiso   1.00
C13    C     0.85278   0.80176   0.29217   0.00000  Uiso   1.00
C14    C     0.56605   0.71332   0.36671   0.00000  Uiso   1.00
C15    C     0.57841   0.63932   0.38539   0.00000  Uiso   1.00
C16    C     0.57950   0.63349   0.41783   0.00000  Uiso   1.00
C17    C     0.59165   0.56060   0.43041   0.00000  Uiso   1.00
C18    C     0.49726   0.69802   0.34531   0.00000  Uiso   1.00
C19    C     0.43012   0.74154   0.34406   0.00000  Uiso   1.00
C20    C     0.37395   0.71808   0.32289   0.00000  Uiso   1.00
C21    C     0.63592   0.72106   0.34522   0.00000  Uiso   1.00
C22    C     0.68535   0.78396   0.34388   0.00000  Uiso   1.00
C23    C     0.74592   0.77991   0.32263   0.00000  Uiso   1.00
H24    H     0.59399   0.54393   0.31640   0.00000  Uiso   1.00
H25    H     0.60948   0.45174   0.36384   0.00000  Uiso   1.00
H26    H     0.46012   0.55979   0.29007   0.00000  Uiso   1.00
H27    H     0.71532   0.60220   0.28990   0.00000  Uiso   1.00
H28    H     0.62191   0.37805   0.42491   0.00000  Uiso   1.00
H29    H     0.30700   0.60588   0.26936   0.00000  Uiso   1.00
H30    H     0.84514   0.69531   0.26899   0.00000  Uiso   1.00
H31    H     0.55774   0.76367   0.38166   0.00000  Uiso   1.00
H32    H     0.57124   0.68354   0.43269   0.00000  Uiso   1.00
H33    H     0.42188   0.79158   0.35892   0.00000  Uiso   1.00
H34    H     0.67708   0.83399   0.35875   0.00000  Uiso   1.00
H35    H     0.59087   0.56618   0.48079   0.00000  Uiso   1.00
H36    H     0.27596   0.79401   0.32523   0.00000  Uiso   1.00
H37    H     0.81410   0.88344   0.32487   0.00000  Uiso   1.00
O38    O     0.61590   0.41543   0.48524   0.00000  Uiso   1.00
O39    O     0.20276   0.71434   0.28115   0.00000  Uiso   1.00
O40    O     0.90878   0.83168   0.28067   0.00000  Uiso   1.00
N41    N     0.61277   0.43332   0.43106   0.00000  Uiso   1.00
N42    N     0.31834   0.64632   0.28563   0.00000  Uiso   1.00
N43    N     0.82144   0.72995   0.28528   0.00000  Uiso   1.00
N44    N     0.59607   0.53455   0.46113   0.00000  Uiso   1.00
N45    N     0.30164   0.74755   0.31570   0.00000  Uiso   1.00
N46    N     0.80474   0.83118   0.31535   0.00000  Uiso   1.00
C47    C     0.08569   0.09428   0.83135   0.00000  Uiso   1.00
C48    C     0.08908   0.07466   0.86618   0.00000  Uiso   1.00
C49    C     0.10123   0.00177   0.87871   0.00000  Uiso   1.00
C50    C     0.10233   0.99583   0.91117   0.00000  Uiso   1.00
C51    C     0.10918   0.95552   0.96233   0.00000  Uiso   1.00
C52    C     0.00793   0.13336   0.82610   0.00000  Uiso   1.00
C53    C     0.95185   0.10983   0.80494   0.00000  Uiso   1.00
C54    C     0.88464   0.15330   0.80365   0.00000  Uiso   1.00
C55    C     0.76552   0.20416   0.79257   0.00000  Uiso   1.00
C56    C     0.14659   0.15639   0.82601   0.00000  Uiso   1.00
C57    C     0.20708   0.15225   0.80476   0.00000  Uiso   1.00
C58    C     0.25660   0.21513   0.80339   0.00000  Uiso   1.00
C59    C     0.35278   0.30176   0.79217   0.00000  Uiso   1.00
C60    C     0.06605   0.21332   0.86671   0.00000  Uiso   1.00
C61    C     0.07841   0.13932   0.88539   0.00000  Uiso   1.00
C62    C     0.07950   0.13349   0.91783   0.00000  Uiso   1.00
C63    C     0.09165   0.06060   0.93041   0.00000  Uiso   1.00
C64    C     0.99726   0.19802   0.84531   0.00000  Uiso   1.00
C65    C     0.93012   0.24154   0.84406   0.00000  Uiso   1.00
C66    C     0.87395   0.21808   0.82289   0.00000  Uiso   1.00
C67    C     0.13592   0.22106   0.84522   0.00000  Uiso   1.00
C68    C     0.18535   0.28396   0.84388   0.00000  Uiso   1.00
C69    C     0.24592   0.27991   0.82263   0.00000  Uiso   1.00
H70    H     0.09399   0.04393   0.81640   0.00000  Uiso   1.00
H71    H     0.10948   0.95174   0.86384   0.00000  Uiso   1.00
H72    H     0.96012   0.05979   0.79007   0.00000  Uiso   1.00
H73    H     0.21532   0.10220   0.78990   0.00000  Uiso   1.00
H74    H     0.12191   0.87805   0.92491   0.00000  Uiso   1.00
H75    H     0.80700   0.10588   0.76936   0.00000  Uiso   1.00
H76    H     0.34514   0.19531   0.76899   0.00000  Uiso   1.00
H77    H     0.05774   0.26367   0.88166   0.00000  Uiso   1.00
H78    H     0.07124   0.18354   0.93269   0.00000  Uiso   1.00
H79    H     0.92188   0.29158   0.85892   0.00000  Uiso   1.00
H80    H     0.17708   0.33399   0.85875   0.00000  Uiso   1.00
H81    H     0.09087   0.06618   0.98079   0.00000  Uiso   1.00
H82    H     0.77596   0.29401   0.82523   0.00000  Uiso   1.00
H83    H     0.31410   0.38344   0.82487   0.00000  Uiso   1.00
O84    O     0.11590   0.91543   0.98524   0.00000  Uiso   1.00
O85    O     0.70276   0.21434   0.78115   0.00000  Uiso   1.00
O86    O     0.40878   0.33168   0.78067   0.00000  Uiso   1.00
N87    N     0.11277   0.93332   0.93106   0.00000  Uiso   1.00
N88    N     0.81834   0.14632   0.78563   0.00000  Uiso   1.00
N89    N     0.32144   0.22995   0.78528   0.00000  Uiso   1.00
N90    N     0.09607   0.03455   0.96113   0.00000  Uiso   1.00
N91    N     0.80164   0.24755   0.81570   0.00000  Uiso   1.00
N92    N     0.30474   0.33118   0.81535   0.00000  Uiso   1.00
C93    C     0.91431   0.90572   0.83135   0.00000  Uiso   1.00
C94    C     0.91092   0.92534   0.86618   0.00000  Uiso   1.00
C95    C     0.89877   0.99823   0.87871   0.00000  Uiso   1.00
C96    C     0.89767   0.00417   0.91117   0.00000  Uiso   1.00
C97    C     0.89082   0.04448   0.96233   0.00000  Uiso   1.00
C98    C     0.99207   0.86664   0.82610   0.00000  Uiso   1.00
C99    C     0.04815   0.89017   0.80494   0.00000  Uiso   1.00
C100   C     0.11536   0.84670   0.80365   0.00000  Uiso   1.00
C101   C     0.23448   0.79584   0.79257   0.00000  Uiso   1.00
C102   C     0.85341   0.84361   0.82601   0.00000  Uiso   1.00
C103   C     0.79292   0.84775   0.80476   0.00000  Uiso   1.00
C104   C     0.74340   0.78487   0.80339   0.00000  Uiso   1.00
C105   C     0.64722   0.69824   0.79217   0.00000  Uiso   1.00
C106   C     0.93395   0.78668   0.86671   0.00000  Uiso   1.00
C107   C     0.92159   0.86068   0.88539   0.00000  Uiso   1.00
C108   C     0.92050   0.86651   0.91783   0.00000  Uiso   1.00
C109   C     0.90835   0.93940   0.93041   0.00000  Uiso   1.00
C110   C     0.00274   0.80198   0.84531   0.00000  Uiso   1.00
C111   C     0.06988   0.75846   0.84406   0.00000  Uiso   1.00
C112   C     0.12605   0.78192   0.82289   0.00000  Uiso   1.00
C113   C     0.86408   0.77894   0.84522   0.00000  Uiso   1.00
C114   C     0.81465   0.71604   0.84388   0.00000  Uiso   1.00
C115   C     0.75408   0.72009   0.82263   0.00000  Uiso   1.00
H116   H     0.90601   0.95607   0.81640   0.00000  Uiso   1.00
H117   H     0.89052   0.04826   0.86384   0.00000  Uiso   1.00
H118   H     0.03988   0.94021   0.79007   0.00000  Uiso   1.00
H119   H     0.78468   0.89780   0.78990   0.00000  Uiso   1.00
H120   H     0.87809   0.12195   0.92491   0.00000  Uiso   1.00
H121   H     0.19300   0.89412   0.76936   0.00000  Uiso   1.00
H122   H     0.65486   0.80469   0.76899   0.00000  Uiso   1.00
H123   H     0.94226   0.73633   0.88166   0.00000  Uiso   1.00
H124   H     0.92876   0.81646   0.93269   0.00000  Uiso   1.00
H125   H     0.07812   0.70842   0.85892   0.00000  Uiso   1.00
H126   H     0.82292   0.66601   0.85875   0.00000  Uiso   1.00
H127   H     0.90913   0.93382   0.98079   0.00000  Uiso   1.00
H128   H     0.22404   0.70599   0.82523   0.00000  Uiso   1.00
H129   H     0.68590   0.61656   0.82487   0.00000  Uiso   1.00
O130   O     0.88410   0.08457   0.98524   0.00000  Uiso   1.00
O131   O     0.29724   0.78566   0.78115   0.00000  Uiso   1.00
O132   O     0.59122   0.66832   0.78067   0.00000  Uiso   1.00
N133   N     0.88723   0.06668   0.93106   0.00000  Uiso   1.00
N134   N     0.18166   0.85368   0.78563   0.00000  Uiso   1.00
N135   N     0.67856   0.77005   0.78528   0.00000  Uiso   1.00
N136   N     0.90393   0.96545   0.96113   0.00000  Uiso   1.00
N137   N     0.19836   0.75245   0.81570   0.00000  Uiso   1.00
N138   N     0.69526   0.66882   0.81535   0.00000  Uiso   1.00
C139   C     0.41431   0.40572   0.33135   0.00000  Uiso   1.00
C140   C     0.41092   0.42534   0.36618   0.00000  Uiso   1.00
C141   C     0.39877   0.49823   0.37871   0.00000  Uiso   1.00
C142   C     0.39767   0.50417   0.41117   0.00000  Uiso   1.00
C143   C     0.39082   0.54448   0.46233   0.00000  Uiso   1.00
C144   C     0.49207   0.36664   0.32610   0.00000  Uiso   1.00
C145   C     0.54815   0.39017   0.30494   0.00000  Uiso   1.00
C146   C     0.61536   0.34670   0.30365   0.00000  Uiso   1.00
C147   C     0.73448   0.29584   0.29257   0.00000  Uiso   1.00
C148   C     0.35341   0.34361   0.32601   0.00000  Uiso   1.00
C149   C     0.29292   0.34775   0.30476   0.00000  Uiso   1.00
C150   C     0.24340   0.28487   0.30339   0.00000  Uiso   1.00
C151   C     0.14722   0.19824   0.29217   0.00000  Uiso   1.00
C152   C     0.43395   0.28668   0.36671   0.00000  Uiso   1.00
C153   C     0.42159   0.36068   0.38539   0.00000  Uiso   1.00
C154   C     0.42050   0.36651   0.41783   0.00000  Uiso   1.00
C155   C     0.40835   0.43940   0.43041   0.00000  Uiso   1.00
C156   C     0.50274   0.30198   0.34531   0.00000  Uiso   1.00
C157   C     0.56988   0.25846   0.34406   0.00000  Uiso   1.00
C158   C     0.62605   0.28192   0.32289   0.00000  Uiso   1.00
C159   C     0.36408   0.27894   0.34522   0.00000  Uiso   1.00
C160   C     0.31465   0.21604   0.34388   0.00000  Uiso   1.00
C161   C     0.25408   0.22009   0.32263   0.00000  Uiso   1.00
H162   H     0.40601   0.45607   0.31640   0.00000  Uiso   1.00
H163   H     0.39052   0.54826   0.36384   0.00000  Uiso   1.00
H164   H     0.53988   0.44021   0.29007   0.00000  Uiso   1.00
H165   H     0.28468   0.39780   0.28990   0.00000  Uiso   1.00
H166   H     0.37809   0.62195   0.42491   0.00000  Uiso   1.00
H167   H     0.69300   0.39412   0.26936   0.00000  Uiso   1.00
H168   H     0.15486   0.30469   0.26899   0.00000  Uiso   1.00
H169   H     0.44226   0.23633   0.38166   0.00000  Uiso   1.00
H170   H     0.42876   0.31646   0.43269   0.00000  Uiso   1.00
H171   H     0.57812   0.20842   0.35892   0.00000  Uiso   1.00
H172   H     0.32292   0.16601   0.35875   0.00000  Uiso   1.00
H173   H     0.40913   0.43382   0.48079   0.00000  Uiso   1.00
H174   H     0.72404   0.20599   0.32523   0.00000  Uiso   1.00
H175   H     0.18590   0.11656   0.32487   0.00000  Uiso   1.00
O176   O     0.38410   0.58457   0.48524   0.00000  Uiso   1.00
O177   O     0.79724   0.28566   0.28115   0.00000  Uiso   1.00
O178   O     0.09122   0.16832   0.28067   0.00000  Uiso   1.00
N179   N     0.38723   0.56668   0.43106   0.00000  Uiso   1.00
N180   N     0.68166   0.35368   0.28563   0.00000  Uiso   1.00
N181   N     0.17856   0.27005   0.28528   0.00000  Uiso   1.00
N182   N     0.40393   0.46545   0.46113   0.00000  Uiso   1.00
N183   N     0.69836   0.25245   0.31570   0.00000  Uiso   1.00
N184   N     0.19526   0.16882   0.31535   0.00000  Uiso   1.00
C185   C     0.40572   0.08569   0.58135   0.00000  Uiso   1.00
C186   C     0.42534   0.08908   0.61618   0.00000  Uiso   1.00
C187   C     0.49823   0.10123   0.62871   0.00000  Uiso   1.00
C188   C     0.50417   0.10233   0.66117   0.00000  Uiso   1.00
C189   C     0.54448   0.10918   0.71233   0.00000  Uiso   1.00
C190   C     0.36664   0.00793   0.57610   0.00000  Uiso   1.00
C191   C     0.39017   0.95185   0.55494   0.00000  Uiso   1.00
C192   C     0.34670   0.88464   0.55365   0.00000  Uiso   1.00
C193   C     0.29584   0.76552   0.54257   0.00000  Uiso   1.00
C194   C     0.34361   0.14659   0.57601   0.00000  Uiso   1.00
C195   C     0.34775   0.20708   0.55476   0.00000  Uiso   1.00
C196   C     0.28487   0.25660   0.55339   0.00000  Uiso   1.00
C197   C     0.19824   0.35278   0.54217   0.00000  Uiso   1.00
C198   C     0.28668   0.06605   0.61671   0.00000  Uiso   1.00
C199   C     0.36068   0.07841   0.63539   0.00000  Uiso   1.00
C200   C     0.36651   0.07950   0.66783   0.00000  Uiso   1.00
C201   C     0.43940   0.09165   0.68041   0.00000  Uiso   1.00
C202   C     0.30198   0.99726   0.59531   0.00000  Uiso   1.00
C203   C     0.25846   0.93012   0.59406   0.00000  Uiso   1.00
C204   C     0.28192   0.87395   0.57289   0.00000  Uiso   1.00
C205   C     0.27894   0.13592   0.59522   0.00000  Uiso   1.00
C206   C     0.21604   0.18535   0.59388   0.00000  Uiso   1.00
C207   C     0.22009   0.24592   0.57263   0.00000  Uiso   1.00
H208   H     0.45607   0.09399   0.56640   0.00000  Uiso   1.00
H209   H     0.54826   0.10948   0.61384   0.00000  Uiso   1.00
H210   H     0.44021   0.96012   0.54007   0.00000  Uiso   1.00
H211   H     0.39780   0.21532   0.53990   0.00000  Uiso   1.00
H212   H     0.62195   0.12191   0.67491   0.00000  Uiso   1.00
H213   H     0.39412   0.80700   0.51936   0.00000  Uiso   1.00
H214   H     0.30469   0.34514   0.51899   0.00000  Uiso   1.00
H215   H     0.23633   0.05774   0.63166   0.00000  Uiso   1.00
H216   H     0.31646   0.07124   0.68269   0.00000  Uiso   1.00
H217   H     0.20842   0.92188   0.60892   0.00000  Uiso   1.00
H218   H     0.16601   0.17708   0.60875   0.00000  Uiso   1.00
H219   H     0.43382   0.09087   0.73079   0.00000  Uiso   1.00
H220   H     0.20599   0.77596   0.57523   0.00000  Uiso   1.00
H221   H     0.11656   0.31410   0.57487   0.00000  Uiso   1.00
O222   O     0.58457   0.11590   0.73524   0.00000  Uiso   1.00
O223   O     0.28566   0.70276   0.53115   0.00000  Uiso   1.00
O224   O     0.16832   0.40878   0.53067   0.00000  Uiso   1.00
N225   N     0.56668   0.11277   0.68106   0.00000  Uiso   1.00
N226   N     0.35368   0.81834   0.53563   0.00000  Uiso   1.00
N227   N     0.27005   0.32144   0.53528   0.00000  Uiso   1.00
N228   N     0.46545   0.09607   0.71113   0.00000  Uiso   1.00
N229   N     0.25245   0.80164   0.56570   0.00000  Uiso   1.00
N230   N     0.16882   0.30474   0.56535   0.00000  Uiso   1.00
C231   C     0.90572   0.58569   0.08135   0.00000  Uiso   1.00
C232   C     0.92534   0.58908   0.11618   0.00000  Uiso   1.00
C233   C     0.99823   0.60123   0.12871   0.00000  Uiso   1.00
C234   C     0.00417   0.60233   0.16117   0.00000  Uiso   1.00
C235   C     0.04448   0.60918   0.21233   0.00000  Uiso   1.00
C236   C     0.86664   0.50793   0.07610   0.00000  Uiso   1.00
C237   C     0.89017   0.45185   0.05494   0.00000  Uiso   1.00
C238   C     0.84670   0.38464   0.05365   0.00000  Uiso   1.00
C239   C     0.79584   0.26552   0.04257   0.00000  Uiso   1.00
C240   C     0.84361   0.64659   0.07601   0.00000  Uiso   1.00
C241   C     0.84775   0.70708   0.05476   0.00000  Uiso   1.00
C242   C     0.78487   0.75660   0.05339   0.00000  Uiso   1.00
C243   C     0.69824   0.85278   0.04217   0.00000  Uiso   1.00
C244   C     0.78668   0.56605   0.11671   0.00000  Uiso   1.00
C245   C     0.86068   0.57841   0.13539   0.00000  Uiso   1.00
C246   C     0.86651   0.57950   0.16783   0.00000  Uiso   1.00
C247   C     0.93940   0.59165   0.18041   0.00000  Uiso   1.00
C248   C     0.80198   0.49726   0.09531   0.00000  Uiso   1.00
C249   C     0.75846   0.43012   0.09406   0.00000  Uiso   1.00
C250   C     0.78192   0.37395   0.07289   0.00000  Uiso   1.00
C251   C     0.77894   0.63592   0.09522   0.00000  Uiso   1.00
C252   C     0.71604   0.68535   0.09388   0.00000  Uiso   1.00
C253   C     0.72009   0.74592   0.07263   0.00000  Uiso   1.00
H254   H     0.95607   0.59399   0.06640   0.00000  Uiso   1.00
H255   H     0.04826   0.60948   0.11384   0.00000  Uiso   1.00
H256   H     0.94021   0.46012   0.04007   0.00000  Uiso   1.00
H257   H     0.89780   0.71532   0.03990   0.00000  Uiso   1.00
H258   H     0.12195   0.62191   0.17491   0.00000  Uiso   1.00
H259   H     0.89412   0.30700   0.01936   0.00000  Uiso   1.00
H260   H     0.80469   0.84514   0.01899   0.00000  Uiso   1.00
H261   H     0.73633   0.55774   0.13166   0.00000  Uiso   1.00
H262   H     0.81646   0.57124   0.18269   0.00000  Uiso   1.00
H263   H     0.70842   0.42188   0.10892   0.00000  Uiso   1.00
H264   H     0.66601   0.67708   0.10875   0.00000  Uiso   1.00
H265   H     0.93382   0.59087   0.23079   0.00000  Uiso   1.00
H266   H     0.70599   0.27596   0.07523   0.00000  Uiso   1.00
H267   H     0.61656   0.81410   0.07487   0.00000  Uiso   1.00
O268   O     0.08457   0.61590   0.23524   0.00000  Uiso   1.00
O269   O     0.78566   0.20276   0.03115   0.00000  Uiso   1.00
O270   O     0.66832   0.90878   0.03067   0.00000  Uiso   1.00
N271   N     0.06668   0.61277   0.18106   0.00000  Uiso   1.00
N272   N     0.85368   0.31834   0.03563   0.00000  Uiso   1.00
N273   N     0.77005   0.82144   0.03528   0.00000  Uiso   1.00
N274   N     0.96545   0.59607   0.21113   0.00000  Uiso   1.00
N275   N     0.75245   0.30164   0.06570   0.00000  Uiso   1.00
N276   N     0.66882   0.80474   0.06535   0.00000  Uiso   1.00
C277   C     0.09428   0.41431   0.08135   0.00000  Uiso   1.00
C278   C     0.07466   0.41092   0.11618   0.00000  Uiso   1.00
C279   C     0.00177   0.39877   0.12871   0.00000  Uiso   1.00
C280   C     0.99583   0.39767   0.16117   0.00000  Uiso   1.00
C281   C     0.95552   0.39082   0.21233   0.00000  Uiso   1.00
C282   C     0.13336   0.49207   0.07610   0.00000  Uiso   1.00
C283   C     0.10983   0.54815   0.05494   0.00000  Uiso   1.00
C284   C     0.15330   0.61536   0.05365   0.00000  Uiso   1.00
C285   C     0.20416   0.73448   0.04257   0.00000  Uiso   1.00
C286   C     0.15639   0.35341   0.07601   0.00000  Uiso   1.00
C287   C     0.15225   0.29292   0.05476   0.00000  Uiso   1.00
C288   C     0.21513   0.24340   0.05339   0.00000  Uiso   1.00
C289   C     0.30176   0.14722   0.04217   0.00000  Uiso   1.00
C290   C     0.21332   0.43395   0.11671   0.00000  Uiso   1.00
C291   C     0.13932   0.42159   0.13539   0.00000  Uiso   1.00
C292   C     0.13349   0.42050   0.16783   0.00000  Uiso   1.00
C293   C     0.06060   0.40835   0.18041   0.00000  Uiso   1.00
C294   C     0.19802   0.50274   0.09531   0.00000  Uiso   1.00
C295   C     0.24154   0.56988   0.09406   0.00000  Uiso   1.00
C296   C     0.21808   0.62605   0.07289   0.00000  Uiso   1.00
C297   C     0.22106   0.36408   0.09522   0.00000  Uiso   1.00
C298   C     0.28396   0.31465   0.09388   0.00000  Uiso   1.00
C299   C     0.27991   0.25408   0.07263   0.00000  Uiso   1.00
H300   H     0.04393   0.40601   0.06640   0.00000  Uiso   1.00
H301   H     0.95174   0.39052   0.11384   0.00000  Uiso   1.00
H302   H     0.05979   0.53988   0.04007   0.00000  Uiso   1.00
H303   H     0.10220   0.28468   0.03990   0.00000  Uiso   1.00
H304   H     0.87805   0.37809   0.17491   0.00000  Uiso   1.00
H305   H     0.10588   0.69300   0.01936   0.00000  Uiso   1.00
H306   H     0.19531   0.15486   0.01899   0.00000  Uiso   1.00
H307   H     0.26367   0.44226   0.13166   0.00000  Uiso   1.00
H308   H     0.18354   0.42876   0.18269   0.00000  Uiso   1.00
H309   H     0.29158   0.57812   0.10892   0.00000  Uiso   1.00
H310   H     0.33399   0.32292   0.10875   0.00000  Uiso   1.00
H311   H     0.06618   0.40913   0.23079   0.00000  Uiso   1.00
H312   H     0.29401   0.72404   0.07523   0.00000  Uiso   1.00
H313   H     0.38344   0.18590   0.07487   0.00000  Uiso   1.00
O314   O     0.91543   0.38410   0.23524   0.00000  Uiso   1.00
O315   O     0.21434   0.79724   0.03115   0.00000  Uiso   1.00
O316   O     0.33168   0.09122   0.03067   0.00000  Uiso   1.00
N317   N     0.93332   0.38723   0.18106   0.00000  Uiso   1.00
N318   N     0.14632   0.68166   0.03563   0.00000  Uiso   1.00
N319   N     0.22995   0.17856   0.03528   0.00000  Uiso   1.00
N320   N     0.03455   0.40393   0.21113   0.00000  Uiso   1.00
N321   N     0.24755   0.69836   0.06570   0.00000  Uiso   1.00
N322   N     0.33118   0.19526   0.06535   0.00000  Uiso   1.00
C323   C     0.59428   0.91431   0.58135   0.00000  Uiso   1.00
C324   C     0.57466   0.91092   0.61618   0.00000  Uiso   1.00
C325   C     0.50177   0.89877   0.62871   0.00000  Uiso   1.00
C326   C     0.49583   0.89767   0.66117   0.00000  Uiso   1.00
C327   C     0.45552   0.89082   0.71233   0.00000  Uiso   1.00
C328   C     0.63336   0.99207   0.57610   0.00000  Uiso   1.00
C329   C     0.60983   0.04815   0.55494   0.00000  Uiso   1.00
C330   C     0.65330   0.11536   0.55365   0.00000  Uiso   1.00
C331   C     0.70416   0.23448   0.54257   0.00000  Uiso   1.00
C332   C     0.65639   0.85341   0.57601   0.00000  Uiso   1.00
C333   C     0.65225   0.79292   0.55476   0.00000  Uiso   1.00
C334   C     0.71513   0.74340   0.55339   0.00000  Uiso   1.00
C335   C     0.80176   0.64722   0.54217   0.00000  Uiso   1.00
C336   C     0.71332   0.93395   0.61671   0.00000  Uiso   1.00
C337   C     0.63932   0.92159   0.63539   0.00000  Uiso   1.00
C338   C     0.63349   0.92050   0.66783   0.00000  Uiso   1.00
C339   C     0.56060   0.90835   0.68041   0.00000  Uiso   1.00
C340   C     0.69802   0.00274   0.59531   0.00000  Uiso   1.00
C341   C     0.74154   0.06988   0.59406   0.00000  Uiso   1.00
C342   C     0.71808   0.12605   0.57289   0.00000  Uiso   1.00
C343   C     0.72106   0.86408   0.59522   0.00000  Uiso   1.00
C344   C     0.78396   0.81465   0.59388   0.00000  Uiso   1.00
C345   C     0.77991   0.75408   0.57263   0.00000  Uiso   1.00
H346   H     0.54393   0.90601   0.56640   0.00000  Uiso   1.00
H347   H     0.45174   0.89052   0.61384   0.00000  Uiso   1.00
H348   H     0.55979   0.03988   0.54007   0.00000  Uiso   1.00
H349   H     0.60220   0.78468   0.53990   0.00000  Uiso   1.00
H350   H     0.37805   0.87809   0.67491   0.00000  Uiso   1.00
H351   H     0.60588   0.19300   0.51936   0.00000  Uiso   1.00
H352   H     0.69531   0.65486   0.51899   0.00000  Uiso   1.00
H353   H     0.76367   0.94226   0.63166   0.00000  Uiso   1.00
H354   H     0.68354   0.92876   0.68269   0.00000  Uiso   1.00
H355   H     0.79158   0.07812   0.60892   0.00000  Uiso   1.00
H356   H     0.83399   0.82292   0.60875   0.00000  Uiso   1.00
H357   H     0.56618   0.90913   0.73079   0.00000  Uiso   1.00
H358   H     0.79401   0.22404   0.57523   0.00000  Uiso   1.00
H359   H     0.88344   0.68590   0.57487   0.00000  Uiso   1.00
O360   O     0.41543   0.88410   0.73524   0.00000  Uiso   1.00
O361   O     0.71434   0.29724   0.53115   0.00000  Uiso   1.00
O362   O     0.83168   0.59122   0.53067   0.00000  Uiso   1.00
N363   N     0.43332   0.88723   0.68106   0.00000  Uiso   1.00
N364   N     0.64632   0.18166   0.53563   0.00000  Uiso   1.00
N365   N     0.72995   0.67856   0.53528   0.00000  Uiso   1.00
N366   N     0.53455   0.90393   0.71113   0.00000  Uiso   1.00
N367   N     0.74755   0.19836   0.56570   0.00000  Uiso   1.00
N368   N     0.83118   0.69526   0.56535   0.00000  Uiso   1.00
C369   C     0.41431   0.90572   0.91865   0.00000  Uiso   1.00
C370   C     0.41092   0.92534   0.88382   0.00000  Uiso   1.00
C371   C     0.39877   0.99823   0.87129   0.00000  Uiso   1.00
C372   C     0.39767   0.00417   0.83883   0.00000  Uiso   1.00
C373   C     0.39082   0.04448   0.78767   0.00000  Uiso   1.00
C374   C     0.49207   0.86664   0.92390   0.00000  Uiso   1.00
C375   C     0.54815   0.89017   0.94506   0.00000  Uiso   1.00
C376   C     0.61536   0.84670   0.94635   0.00000  Uiso   1.00
C377   C     0.73448   0.79584   0.95743   0.00000  Uiso   1.00
C378   C     0.35341   0.84361   0.92399   0.00000  Uiso   1.00
C379   C     0.29292   0.84775   0.94524   0.00000  Uiso   1.00
C380   C     0.24340   0.78487   0.94661   0.00000  Uiso   1.00
C381   C     0.14722   0.69824   0.95783   0.00000  Uiso   1.00
C382   C     0.43395   0.78668   0.88329   0.00000  Uiso   1.00
C383   C     0.42159   0.86068   0.86461   0.00000  Uiso   1.00
C384   C     0.42050   0.86651   0.83217   0.00000  Uiso   1.00
C385   C     0.40835   0.93940   0.81959   0.00000  Uiso   1.00
C386   C     0.50274   0.80198   0.90469   0.00000  Uiso   1.00
C387   C     0.56988   0.75846   0.90594   0.00000  Uiso   1.00
C388   C     0.62605   0.78192   0.92711   0.00000  Uiso   1.00
C389   C     0.36408   0.77894   0.90478   0.00000  Uiso   1.00
C390   C     0.31465   0.71604   0.90612   0.00000  Uiso   1.00
C391   C     0.25408   0.72009   0.92737   0.00000  Uiso   1.00
H392   H     0.40601   0.95607   0.93360   0.00000  Uiso   1.00
H393   H     0.39052   0.04826   0.88616   0.00000  Uiso   1.00
H394   H     0.53988   0.94021   0.95993   0.00000  Uiso   1.00
H395   H     0.28468   0.89780   0.96010   0.00000  Uiso   1.00
H396   H     0.37809   0.12195   0.82509   0.00000  Uiso   1.00
H397   H     0.69300   0.89412   0.98064   0.00000  Uiso   1.00
H398   H     0.15486   0.80469   0.98101   0.00000  Uiso   1.00
H399   H     0.44226   0.73633   0.86834   0.00000  Uiso   1.00
H400   H     0.42876   0.81646   0.81731   0.00000  Uiso   1.00
H401   H     0.57812   0.70842   0.89108   0.00000  Uiso   1.00
H402   H     0.32292   0.66601   0.89125   0.00000  Uiso   1.00
H403   H     0.40913   0.93382   0.76921   0.00000  Uiso   1.00
H404   H     0.72404   0.70599   0.92477   0.00000  Uiso   1.00
H405   H     0.18590   0.61656   0.92513   0.00000  Uiso   1.00
O406   O     0.38410   0.08457   0.76476   0.00000  Uiso   1.00
O407   O     0.79724   0.78566   0.96885   0.00000  Uiso   1.00
O408   O     0.09122   0.66832   0.96933   0.00000  Uiso   1.00
N409   N     0.38723   0.06668   0.81894   0.00000  Uiso   1.00
N410   N     0.68166   0.85368   0.96437   0.00000  Uiso   1.00
N411   N     0.17856   0.77005   0.96472   0.00000  Uiso   1.00
N412   N     0.40393   0.96545   0.78887   0.00000  Uiso   1.00
N413   N     0.69836   0.75245   0.93430   0.00000  Uiso   1.00
N414   N     0.19526   0.66882   0.93465   0.00000  Uiso   1.00
C415   C     0.91431   0.40572   0.41865   0.00000  Uiso   1.00
C416   C     0.91092   0.42534   0.38382   0.00000  Uiso   1.00
C417   C     0.89877   0.49823   0.37129   0.00000  Uiso   1.00
C418   C     0.89767   0.50417   0.33883   0.00000  Uiso   1.00
C419   C     0.89082   0.54448   0.28767   0.00000  Uiso   1.00
C420   C     0.99207   0.36664   0.42390   0.00000  Uiso   1.00
C421   C     0.04815   0.39017   0.44506   0.00000  Uiso   1.00
C422   C     0.11536   0.34670   0.44635   0.00000  Uiso   1.00
C423   C     0.23448   0.29584   0.45743   0.00000  Uiso   1.00
C424   C     0.85341   0.34361   0.42399   0.00000  Uiso   1.00
C425   C     0.79292   0.34775   0.44524   0.00000  Uiso   1.00
C426   C     0.74340   0.28487   0.44661   0.00000  Uiso   1.00
C427   C     0.64722   0.19824   0.45783   0.00000  Uiso   1.00
C428   C     0.93395   0.28668   0.38329   0.00000  Uiso   1.00
C429   C     0.92159   0.36068   0.36461   0.00000  Uiso   1.00
C430   C     0.92050   0.36651   0.33217   0.00000  Uiso   1.00
C431   C     0.90835   0.43940   0.31959   0.00000  Uiso   1.00
C432   C     0.00274   0.30198   0.40469   0.00000  Uiso   1.00
C433   C     0.06988   0.25846   0.40594   0.00000  Uiso   1.00
C434   C     0.12605   0.28192   0.42711   0.00000  Uiso   1.00
C435   C     0.86408   0.27894   0.40478   0.00000  Uiso   1.00
C436   C     0.81465   0.21604   0.40612   0.00000  Uiso   1.00
C437   C     0.75408   0.22009   0.42737   0.00000  Uiso   1.00
H438   H     0.90601   0.45607   0.43360   0.00000  Uiso   1.00
H439   H     0.89052   0.54826   0.38616   0.00000  Uiso   1.00
H440   H     0.03988   0.44021   0.45993   0.00000  Uiso   1.00
H441   H     0.78468   0.39780   0.46010   0.00000  Uiso   1.00
H442   H     0.87809   0.62195   0.32509   0.00000  Uiso   1.00
H443   H     0.19300   0.39412   0.48064   0.00000  Uiso   1.00
H444   H     0.65486   0.30469   0.48101   0.00000  Uiso   1.00
H445   H     0.94226   0.23633   0.36834   0.00000  Uiso   1.00
H446   H     0.92876   0.31646   0.31731   0.00000  Uiso   1.00
H447   H     0.07812   0.20842   0.39108   0.00000  Uiso   1.00
H448   H     0.82292   0.16601   0.39125   0.00000  Uiso   1.00
H449   H     0.90913   0.43382   0.26921   0.00000  Uiso   1.00
H450   H     0.22404   0.20599   0.42477   0.00000  Uiso   1.00
H451   H     0.68590   0.11656   0.42513   0.00000  Uiso   1.00
O452   O     0.88410   0.58457   0.26476   0.00000  Uiso   1.00
O453   O     0.29724   0.28566   0.46885   0.00000  Uiso   1.00
O454   O     0.59122   0.16832   0.46933   0.00000  Uiso   1.00
N455   N     0.88723   0.56668   0.31894   0.00000  Uiso   1.00
N456   N     0.18166   0.35368   0.46437   0.00000  Uiso   1.00
N457   N     0.67856   0.27005   0.46472   0.00000  Uiso   1.00
N458   N     0.90393   0.46545   0.28887   0.00000  Uiso   1.00
N459   N     0.19836   0.25245   0.43430   0.00000  Uiso   1.00
N460   N     0.69526   0.16882   0.43465   0.00000  Uiso   1.00
C461   C     0.08569   0.59428   0.41865   0.00000  Uiso   1.00
C462   C     0.08908   0.57466   0.38382   0.00000  Uiso   1.00
C463   C     0.10123   0.50177   0.37129   0.00000  Uiso   1.00
C464   C     0.10233   0.49583   0.33883   0.00000  Uiso   1.00
C465   C     0.10918   0.45552   0.28767   0.00000  Uiso   1.00
C466   C     0.00793   0.63336   0.42390   0.00000  Uiso   1.00
C467   C     0.95185   0.60983   0.44506   0.00000  Uiso   1.00
C468   C     0.88464   0.65330   0.44635   0.00000  Uiso   1.00
C469   C     0.76552   0.70416   0.45743   0.00000  Uiso   1.00
C470   C     0.14659   0.65639   0.42399   0.00000  Uiso   1.00
C471   C     0.20708   0.65225   0.44524   0.00000  Uiso   1.00
C472   C     0.25660   0.71513   0.44661   0.00000  Uiso   1.00
C473   C     0.35278   0.80176   0.45783   0.00000  Uiso   1.00
C474   C     0.06605   0.71332   0.38329   0.00000  Uiso   1.00
C475   C     0.07841   0.63932   0.36461   0.00000  Uiso   1.00
C476   C     0.07950   0.63349   0.33217   0.00000  Uiso   1.00
C477   C     0.09165   0.56060   0.31959   0.00000  Uiso   1.00
C478   C     0.99726   0.69802   0.40469   0.00000  Uiso   1.00
C479   C     0.93012   0.74154   0.40594   0.00000  Uiso   1.00
C480   C     0.87395   0.71808   0.42711   0.00000  Uiso   1.00
C481   C     0.13592   0.72106   0.40478   0.00000  Uiso   1.00
C482   C     0.18535   0.78396   0.40612   0.00000  Uiso   1.00
C483   C     0.24592   0.77991   0.42737   0.00000  Uiso   1.00
H484   H     0.09399   0.54393   0.43360   0.00000  Uiso   1.00
H485   H     0.10948   0.45174   0.38616   0.00000  Uiso   1.00
H486   H     0.96012   0.55979   0.45993   0.00000  Uiso   1.00
H487   H     0.21532   0.60220   0.46010   0.00000  Uiso   1.00
H488   H     0.12191   0.37805   0.32509   0.00000  Uiso   1.00
H489   H     0.80700   0.60588   0.48064   0.00000  Uiso   1.00
H490   H     0.34514   0.69531   0.48101   0.00000  Uiso   1.00
H491   H     0.05774   0.76367   0.36834   0.00000  Uiso   1.00
H492   H     0.07124   0.68354   0.31731   0.00000  Uiso   1.00
H493   H     0.92188   0.79158   0.39108   0.00000  Uiso   1.00
H494   H     0.17708   0.83399   0.39125   0.00000  Uiso   1.00
H495   H     0.09087   0.56618   0.26921   0.00000  Uiso   1.00
H496   H     0.77596   0.79401   0.42477   0.00000  Uiso   1.00
H497   H     0.31410   0.88344   0.42513   0.00000  Uiso   1.00
O498   O     0.11590   0.41543   0.26476   0.00000  Uiso   1.00
O499   O     0.70276   0.71434   0.46885   0.00000  Uiso   1.00
O500   O     0.40878   0.83168   0.46933   0.00000  Uiso   1.00
N501   N     0.11277   0.43332   0.31894   0.00000  Uiso   1.00
N502   N     0.81834   0.64632   0.46437   0.00000  Uiso   1.00
N503   N     0.32144   0.72995   0.46472   0.00000  Uiso   1.00
N504   N     0.09607   0.53455   0.28887   0.00000  Uiso   1.00
N505   N     0.80164   0.74755   0.43430   0.00000  Uiso   1.00
N506   N     0.30474   0.83118   0.43465   0.00000  Uiso   1.00
C507   C     0.58569   0.09428   0.91865   0.00000  Uiso   1.00
C508   C     0.58908   0.07466   0.88382   0.00000  Uiso   1.00
C509   C     0.60123   0.00177   0.87129   0.00000  Uiso   1.00
C510   C     0.60233   0.99583   0.83883   0.00000  Uiso   1.00
C511   C     0.60918   0.95552   0.78767   0.00000  Uiso   1.00
C512   C     0.50793   0.13336   0.92390   0.00000  Uiso   1.00
C513   C     0.45185   0.10983   0.94506   0.00000  Uiso   1.00
C514   C     0.38464   0.15330   0.94635   0.00000  Uiso   1.00
C515   C     0.26552   0.20416   0.95743   0.00000  Uiso   1.00
C516   C     0.64659   0.15639   0.92399   0.00000  Uiso   1.00
C517   C     0.70708   0.15225   0.94524   0.00000  Uiso   1.00
C518   C     0.75660   0.21513   0.94661   0.00000  Uiso   1.00
C519   C     0.85278   0.30176   0.95783   0.00000  Uiso   1.00
C520   C     0.56605   0.21332   0.88329   0.00000  Uiso   1.00
C521   C     0.57841   0.13932   0.86461   0.00000  Uiso   1.00
C522   C     0.57950   0.13349   0.83217   0.00000  Uiso   1.00
C523   C     0.59165   0.06060   0.81959   0.00000  Uiso   1.00
C524   C     0.49726   0.19802   0.90469   0.00000  Uiso   1.00
C525   C     0.43012   0.24154   0.90594   0.00000  Uiso   1.00
C526   C     0.37395   0.21808   0.92711   0.00000  Uiso   1.00
C527   C     0.63592   0.22106   0.90478   0.00000  Uiso   1.00
C528   C     0.68535   0.28396   0.90612   0.00000  Uiso   1.00
C529   C     0.74592   0.27991   0.92737   0.00000  Uiso   1.00
H530   H     0.59399   0.04393   0.93360   0.00000  Uiso   1.00
H531   H     0.60948   0.95174   0.88616   0.00000  Uiso   1.00
H532   H     0.46012   0.05979   0.95993   0.00000  Uiso   1.00
H533   H     0.71532   0.10220   0.96010   0.00000  Uiso   1.00
H534   H     0.62191   0.87805   0.82509   0.00000  Uiso   1.00
H535   H     0.30700   0.10588   0.98064   0.00000  Uiso   1.00
H536   H     0.84514   0.19531   0.98101   0.00000  Uiso   1.00
H537   H     0.55774   0.26367   0.86834   0.00000  Uiso   1.00
H538   H     0.57124   0.18354   0.81731   0.00000  Uiso   1.00
H539   H     0.42188   0.29158   0.89108   0.00000  Uiso   1.00
H540   H     0.67708   0.33399   0.89125   0.00000  Uiso   1.00
H541   H     0.59087   0.06618   0.76921   0.00000  Uiso   1.00
H542   H     0.27596   0.29401   0.92477   0.00000  Uiso   1.00
H543   H     0.81410   0.38344   0.92513   0.00000  Uiso   1.00
O544   O     0.61590   0.91543   0.76476   0.00000  Uiso   1.00
O545   O     0.20276   0.21434   0.96885   0.00000  Uiso   1.00
O546   O     0.90878   0.33168   0.96933   0.00000  Uiso   1.00
N547   N     0.61277   0.93332   0.81894   0.00000  Uiso   1.00
N548   N     0.31834   0.14632   0.96437   0.00000  Uiso   1.00
N549   N     0.82144   0.22995   0.96472   0.00000  Uiso   1.00
N550   N     0.59607   0.03455   0.78887   0.00000  Uiso   1.00
N551   N     0.30164   0.24755   0.93430   0.00000  Uiso   1.00
N552   N     0.80474   0.33118   0.93465   0.00000  Uiso   1.00
C553   C     0.59428   0.41431   0.66865   0.00000  Uiso   1.00
C554   C     0.57466   0.41092   0.63382   0.00000  Uiso   1.00
C555   C     0.50177   0.39877   0.62129   0.00000  Uiso   1.00
C556   C     0.49583   0.39767   0.58883   0.00000  Uiso   1.00
C557   C     0.45552   0.39082   0.53767   0.00000  Uiso   1.00
C558   C     0.63336   0.49207   0.67390   0.00000  Uiso   1.00
C559   C     0.60983   0.54815   0.69506   0.00000  Uiso   1.00
C560   C     0.65330   0.61536   0.69635   0.00000  Uiso   1.00
C561   C     0.70416   0.73448   0.70743   0.00000  Uiso   1.00
C562   C     0.65639   0.35341   0.67399   0.00000  Uiso   1.00
C563   C     0.65225   0.29292   0.69524   0.00000  Uiso   1.00
C564   C     0.71513   0.24340   0.69661   0.00000  Uiso   1.00
C565   C     0.80176   0.14722   0.70783   0.00000  Uiso   1.00
C566   C     0.71332   0.43395   0.63329   0.00000  Uiso   1.00
C567   C     0.63932   0.42159   0.61461   0.00000  Uiso   1.00
C568   C     0.63349   0.42050   0.58217   0.00000  Uiso   1.00
C569   C     0.56060   0.40835   0.56959   0.00000  Uiso   1.00
C570   C     0.69802   0.50274   0.65469   0.00000  Uiso   1.00
C571   C     0.74154   0.56988   0.65594   0.00000  Uiso   1.00
C572   C     0.71808   0.62605   0.67711   0.00000  Uiso   1.00
C573   C     0.72106   0.36408   0.65478   0.00000  Uiso   1.00
C574   C     0.78396   0.31465   0.65612   0.00000  Uiso   1.00
C575   C     0.77991   0.25408   0.67737   0.00000  Uiso   1.00
H576   H     0.54393   0.40601   0.68360   0.00000  Uiso   1.00
H577   H     0.45174   0.39052   0.63616   0.00000  Uiso   1.00
H578   H     0.55979   0.53988   0.70993   0.00000  Uiso   1.00
H579   H     0.60220   0.28468   0.71010   0.00000  Uiso   1.00
H580   H     0.37805   0.37809   0.57509   0.00000  Uiso   1.00
H581   H     0.60588   0.69300   0.73064   0.00000  Uiso   1.00
H582   H     0.69531   0.15486   0.73101   0.00000  Uiso   1.00
H583   H     0.76367   0.44226   0.61834   0.00000  Uiso   1.00
H584   H     0.68354   0.42876   0.56731   0.00000  Uiso   1.00
H585   H     0.79158   0.57812   0.64108   0.00000  Uiso   1.00
H586   H     0.83399   0.32292   0.64125   0.00000  Uiso   1.00
H587   H     0.56618   0.40913   0.51921   0.00000  Uiso   1.00
H588   H     0.79401   0.72404   0.67477   0.00000  Uiso   1.00
H589   H     0.88344   0.18590   0.67513   0.00000  Uiso   1.00
O590   O     0.41543   0.38410   0.51476   0.00000  Uiso   1.00
O591   O     0.71434   0.79724   0.71885   0.00000  Uiso   1.00
O592   O     0.83168   0.09122   0.71933   0.00000  Uiso   1.00
N593   N     0.43332   0.38723   0.56894   0.00000  Uiso   1.00
N594   N     0.64632   0.68166   0.71437   0.00000  Uiso   1.00
N595   N     0.72995   0.17856   0.71472   0.00000  Uiso   1.00
N596   N     0.53455   0.40393   0.53887   0.00000  Uiso   1.00
N597   N     0.74755   0.69836   0.68430   0.00000  Uiso   1.00
N598   N     0.83118   0.19526   0.68465   0.00000  Uiso   1.00
C599   C     0.09428   0.91431   0.16865   0.00000  Uiso   1.00
C600   C     0.07466   0.91092   0.13382   0.00000  Uiso   1.00
C601   C     0.00177   0.89877   0.12129   0.00000  Uiso   1.00
C602   C     0.99583   0.89767   0.08883   0.00000  Uiso   1.00
C603   C     0.95552   0.89082   0.03767   0.00000  Uiso   1.00
C604   C     0.13336   0.99207   0.17390   0.00000  Uiso   1.00
C605   C     0.10983   0.04815   0.19506   0.00000  Uiso   1.00
C606   C     0.15330   0.11536   0.19635   0.00000  Uiso   1.00
C607   C     0.20416   0.23448   0.20743   0.00000  Uiso   1.00
C608   C     0.15639   0.85341   0.17399   0.00000  Uiso   1.00
C609   C     0.15225   0.79292   0.19524   0.00000  Uiso   1.00
C610   C     0.21513   0.74340   0.19661   0.00000  Uiso   1.00
C611   C     0.30176   0.64722   0.20783   0.00000  Uiso   1.00
C612   C     0.21332   0.93395   0.13329   0.00000  Uiso   1.00
C613   C     0.13932   0.92159   0.11461   0.00000  Uiso   1.00
C614   C     0.13349   0.92050   0.08217   0.00000  Uiso   1.00
C615   C     0.06060   0.90835   0.06959   0.00000  Uiso   1.00
C616   C     0.19802   0.00274   0.15469   0.00000  Uiso   1.00
C617   C     0.24154   0.06988   0.15594   0.00000  Uiso   1.00
C618   C     0.21808   0.12605   0.17711   0.00000  Uiso   1.00
C619   C     0.22106   0.86408   0.15478   0.00000  Uiso   1.00
C620   C     0.28396   0.81465   0.15612   0.00000  Uiso   1.00
C621   C     0.27991   0.75408   0.17737   0.00000  Uiso   1.00
H622   H     0.04393   0.90601   0.18360   0.00000  Uiso   1.00
H623   H     0.95174   0.89052   0.13616   0.00000  Uiso   1.00
H624   H     0.05979   0.03988   0.20993   0.00000  Uiso   1.00
H625   H     0.10220   0.78468   0.21010   0.00000  Uiso   1.00
H626   H     0.87805   0.87809   0.07509   0.00000  Uiso   1.00
H627   H     0.10588   0.19300   0.23064   0.00000  Uiso   1.00
H628   H     0.19531   0.65486   0.23101   0.00000  Uiso   1.00
H629   H     0.26367   0.94226   0.11834   0.00000  Uiso   1.00
H630   H     0.18354   0.92876   0.06731   0.00000  Uiso   1.00
H631   H     0.29158   0.07812   0.14108   0.00000  Uiso   1.00
H632   H     0.33399   0.82292   0.14125   0.00000  Uiso   1.00
H633   H     0.06618   0.90913   0.01921   0.00000  Uiso   1.00
H634   H     0.29401   0.22404   0.17477   0.00000  Uiso   1.00
H635   H     0.38344   0.68590   0.17513   0.00000  Uiso   1.00
O636   O     0.91543   0.88410   0.01476   0.00000  Uiso   1.00
O637   O     0.21434   0.29724   0.21885   0.00000  Uiso   1.00
O638   O     0.33168   0.59122   0.21933   0.00000  Uiso   1.00
N639   N     0.93332   0.88723   0.06894   0.00000  Uiso   1.00
N640   N     0.14632   0.18166   0.21437   0.00000  Uiso   1.00
N641   N     0.22995   0.67856   0.21472   0.00000  Uiso   1.00
N642   N     0.03455   0.90393   0.03887   0.00000  Uiso   1.00
N643   N     0.24755   0.19836   0.18430   0.00000  Uiso   1.00
N644   N     0.33118   0.69526   0.18465   0.00000  Uiso   1.00
C645   C     0.90572   0.08569   0.16865   0.00000  Uiso   1.00
C646   C     0.92534   0.08908   0.13382   0.00000  Uiso   1.00
C647   C     0.99823   0.10123   0.12129   0.00000  Uiso   1.00
C648   C     0.00417   0.10233   0.08883   0.00000  Uiso   1.00
C649   C     0.04448   0.10918   0.03767   0.00000  Uiso   1.00
C650   C     0.86664   0.00793   0.17390   0.00000  Uiso   1.00
C651   C     0.89017   0.95185   0.19506   0.00000  Uiso   1.00
C652   C     0.84670   0.88464   0.19635   0.00000  Uiso   1.00
C653   C     0.79584   0.76552   0.20743   0.00000  Uiso   1.00
C654   C     0.84361   0.14659   0.17399   0.00000  Uiso   1.00
C655   C     0.84775   0.20708   0.19524   0.00000  Uiso   1.00
C656   C     0.78487   0.25660   0.19661   0.00000  Uiso   1.00
C657   C     0.69824   0.35278   0.20783   0.00000  Uiso   1.00
C658   C     0.78668   0.06605   0.13329   0.00000  Uiso   1.00
C659   C     0.86068   0.07841   0.11461   0.00000  Uiso   1.00
C660   C     0.86651   0.07950   0.08217   0.00000  Uiso   1.00
C661   C     0.93940   0.09165   0.06959   0.00000  Uiso   1.00
C662   C     0.80198   0.99726   0.15469   0.00000  Uiso   1.00
C663   C     0.75846   0.93012   0.15594   0.00000  Uiso   1.00
C664   C     0.78192   0.87395   0.17711   0.00000  Uiso   1.00
C665   C     0.77894   0.13592   0.15478   0.00000  Uiso   1.00
C666   C     0.71604   0.18535   0.15612   0.00000  Uiso   1.00
C667   C     0.72009   0.24592   0.17737   0.00000  Uiso   1.00
H668   H     0.95607   0.09399   0.18360   0.00000  Uiso   1.00
H669   H     0.04826   0.10948   0.13616   0.00000  Uiso   1.00
H670   H     0.94021   0.96012   0.20993   0.00000  Uiso   1.00
H671   H     0.89780   0.21532   0.21010   0.00000  Uiso   1.00
H672   H     0.12195   0.12191   0.07509   0.00000  Uiso   1.00
H673   H     0.89412   0.80700   0.23064   0.00000  Uiso   1.00
H674   H     0.80469   0.34514   0.23101   0.00000  Uiso   1.00
H675   H     0.73633   0.05774   0.11834   0.00000  Uiso   1.00
H676   H     0.81646   0.07124   0.06731   0.00000  Uiso   1.00
H677   H     0.70842   0.92188   0.14108   0.00000  Uiso   1.00
H678   H     0.66601   0.17708   0.14125   0.00000  Uiso   1.00
H679   H     0.93382   0.09087   0.01921   0.00000  Uiso   1.00
H680   H     0.70599   0.77596   0.17477   0.00000  Uiso   1.00
H681   H     0.61656   0.31410   0.17513   0.00000  Uiso   1.00
O682   O     0.08457   0.11590   0.01476   0.00000  Uiso   1.00
O683   O     0.78566   0.70276   0.21885   0.00000  Uiso   1.00
O684   O     0.66832   0.40878   0.21933   0.00000  Uiso   1.00
N685   N     0.06668   0.11277   0.06894   0.00000  Uiso   1.00
N686   N     0.85368   0.81834   0.21437   0.00000  Uiso   1.00
N687   N     0.77005   0.32144   0.21472   0.00000  Uiso   1.00
N688   N     0.96545   0.09607   0.03887   0.00000  Uiso   1.00
N689   N     0.75245   0.80164   0.18430   0.00000  Uiso   1.00
N690   N     0.66882   0.30474   0.18465   0.00000  Uiso   1.00
C691   C     0.40572   0.58569   0.66865   0.00000  Uiso   1.00
C692   C     0.42534   0.58908   0.63382   0.00000  Uiso   1.00
C693   C     0.49823   0.60123   0.62129   0.00000  Uiso   1.00
C694   C     0.50417   0.60233   0.58883   0.00000  Uiso   1.00
C695   C     0.54448   0.60918   0.53767   0.00000  Uiso   1.00
C696   C     0.36664   0.50793   0.67390   0.00000  Uiso   1.00
C697   C     0.39017   0.45185   0.69506   0.00000  Uiso   1.00
C698   C     0.34670   0.38464   0.69635   0.00000  Uiso   1.00
C699   C     0.29584   0.26552   0.70743   0.00000  Uiso   1.00
C700   C     0.34361   0.64659   0.67399   0.00000  Uiso   1.00
C701   C     0.34775   0.70708   0.69524   0.00000  Uiso   1.00
C702   C     0.28487   0.75660   0.69661   0.00000  Uiso   1.00
C703   C     0.19824   0.85278   0.70783   0.00000  Uiso   1.00
C704   C     0.28668   0.56605   0.63329   0.00000  Uiso   1.00
C705   C     0.36068   0.57841   0.61461   0.00000  Uiso   1.00
C706   C     0.36651   0.57950   0.58217   0.00000  Uiso   1.00
C707   C     0.43940   0.59165   0.56959   0.00000  Uiso   1.00
C708   C     0.30198   0.49726   0.65469   0.00000  Uiso   1.00
C709   C     0.25846   0.43012   0.65594   0.00000  Uiso   1.00
C710   C     0.28192   0.37395   0.67711   0.00000  Uiso   1.00
C711   C     0.27894   0.63592   0.65478   0.00000  Uiso   1.00
C712   C     0.21604   0.68535   0.65612   0.00000  Uiso   1.00
C713   C     0.22009   0.74592   0.67737   0.00000  Uiso   1.00
H714   H     0.45607   0.59399   0.68360   0.00000  Uiso   1.00
H715   H     0.54826   0.60948   0.63616   0.00000  Uiso   1.00
H716   H     0.44021   0.46012   0.70993   0.00000  Uiso   1.00
H717   H     0.39780   0.71532   0.71010   0.00000  Uiso   1.00
H718   H     0.62195   0.62191   0.57509   0.00000  Uiso   1.00
H719   H     0.39412   0.30700   0.73064   0.00000  Uiso   1.00
H720   H     0.30469   0.84514   0.73101   0.00000  Uiso   1.00
H721   H     0.23633   0.55774   0.61834   0.00000  Uiso   1.00
H722   H     0.31646   0.57124   0.56731   0.00000  Uiso   1.00
H723   H     0.20842   0.42188   0.64108   0.00000  Uiso   1.00
H724   H     0.16601   0.67708   0.64125   0.00000  Uiso   1.00
H725   H     0.43382   0.59087   0.51921   0.00000  Uiso   1.00
H726   H     0.20599   0.27596   0.67477   0.00000  Uiso   1.00
H727   H     0.11656   0.81410   0.67513   0.00000  Uiso   1.00
O728   O     0.58457   0.61590   0.51476   0.00000  Uiso   1.00
O729   O     0.28566   0.20276   0.71885   0.00000  Uiso   1.00
O730   O     0.16832   0.90878   0.71933   0.00000  Uiso   1.00
N731   N     0.56668   0.61277   0.56894   0.00000  Uiso   1.00
N732   N     0.35368   0.31834   0.71437   0.00000  Uiso   1.00
N733   N     0.27005   0.82144   0.71472   0.00000  Uiso   1.00
N734   N     0.46545   0.59607   0.53887   0.00000  Uiso   1.00
N735   N     0.25245   0.30164   0.68430   0.00000  Uiso   1.00
N736   N     0.16882   0.80474   0.68465   0.00000  Uiso   1.00
