data_job_01283
_audit_creation_date              2018-12-19
_audit_creation_method            'Materials Studio'
_symmetry_space_group_name_H-M    'P1'
_symmetry_Int_Tables_number       1
_symmetry_cell_setting            triclinic
loop_
_symmetry_equiv_pos_as_xyz
  x,y,z
_cell_length_a                    23.1182
_cell_length_b                    23.1182
_cell_length_c                    26.1396
_cell_angle_alpha                 90.0000
_cell_angle_beta                  90.0000
_cell_angle_gamma                 90.0000
loop_
_atom_site_label
_atom_site_type_symbol
_atom_site_fract_x
_atom_site_fract_y
_atom_site_fract_z
_atom_site_U_iso_or_equiv
_atom_site_adp_type
_atom_site_occupancy
C1     C     0.14336   0.29469   0.84064   0.00000  Uiso   1.00
C2     C     0.18756   0.34345   0.83667   0.00000  Uiso   1.00
C3     C     0.19317   0.38155   0.79595   0.00000  Uiso   1.00
C4     C     0.23630   0.42313   0.79961   0.00000  Uiso   1.00
C5     C     0.29945   0.49832   0.78691   0.00000  Uiso   1.00
C6     C     0.17809   0.23945   0.84921   0.00000  Uiso   1.00
C7     C     0.17573   0.19012   0.81903   0.00000  Uiso   1.00
C8     C     0.21088   0.14415   0.83325   0.00000  Uiso   1.00
C9     C     0.25929   0.05787   0.84004   0.00000  Uiso   1.00
C10    C     0.11009   0.30534   0.89013   0.00000  Uiso   1.00
C11    C     0.05056   0.31139   0.89436   0.00000  Uiso   1.00
C12    C     0.02846   0.32089   0.94303   0.00000  Uiso   1.00
C13    C     0.97130   0.33691   0.01335   0.00000  Uiso   1.00
C14    C     0.20998   0.30078   0.91956   0.00000  Uiso   1.00
C15    C     0.22375   0.34675   0.87954   0.00000  Uiso   1.00
C16    C     0.26688   0.38829   0.88326   0.00000  Uiso   1.00
C17    C     0.27255   0.42645   0.84255   0.00000  Uiso   1.00
C18    C     0.21427   0.24276   0.89207   0.00000  Uiso   1.00
C19    C     0.24944   0.19686   0.90635   0.00000  Uiso   1.00
C20    C     0.24713   0.14747   0.87620   0.00000  Uiso   1.00
C21    C     0.14628   0.30865   0.93299   0.00000  Uiso   1.00
C22    C     0.12427   0.31814   0.98167   0.00000  Uiso   1.00
C23    C     0.06471   0.32420   0.98597   0.00000  Uiso   1.00
H24    H     0.11519   0.29211   0.80727   0.00000  Uiso   1.00
H25    H     0.16516   0.37897   0.76278   0.00000  Uiso   1.00
H26    H     0.14771   0.18757   0.78587   0.00000  Uiso   1.00
H27    H     0.02257   0.30883   0.86118   0.00000  Uiso   1.00
H28    H     0.23654   0.47672   0.73235   0.00000  Uiso   1.00
H29    H     0.19974   0.07312   0.78104   0.00000  Uiso   1.00
H30    H     0.93584   0.32882   0.93985   0.00000  Uiso   1.00
H31    H     0.23816   0.30336   0.95294   0.00000  Uiso   1.00
H32    H     0.29488   0.39084   0.91644   0.00000  Uiso   1.00
H33    H     0.27743   0.19943   0.93952   0.00000  Uiso   1.00
H34    H     0.15229   0.32070   0.01483   0.00000  Uiso   1.00
H35    H     0.34182   0.48635   0.85706   0.00000  Uiso   1.00
H36    H     0.30502   0.08275   0.90575   0.00000  Uiso   1.00
H37    H     0.04112   0.33846   0.06456   0.00000  Uiso   1.00
O38    O     0.32429   0.53887   0.76806   0.00000  Uiso   1.00
O39    O     0.27600   0.00936   0.83194   0.00000  Uiso   1.00
O40    O     0.92977   0.34484   0.04029   0.00000  Uiso   1.00
N41    N     0.25352   0.46699   0.76672   0.00000  Uiso   1.00
N42    N     0.21912   0.08965   0.81223   0.00000  Uiso   1.00
N43    N     0.97240   0.32869   0.96070   0.00000  Uiso   1.00
N44    N     0.31018   0.47217   0.83382   0.00000  Uiso   1.00
N45    N     0.27578   0.09484   0.87934   0.00000  Uiso   1.00
N46    N     0.02905   0.33388   0.02781   0.00000  Uiso   1.00
C47    C     0.85664   0.70531   0.84064   0.00000  Uiso   1.00
C48    C     0.81244   0.65655   0.83667   0.00000  Uiso   1.00
C49    C     0.80683   0.61845   0.79595   0.00000  Uiso   1.00
C50    C     0.76370   0.57687   0.79961   0.00000  Uiso   1.00
C51    C     0.70055   0.50168   0.78691   0.00000  Uiso   1.00
C52    C     0.82191   0.76055   0.84921   0.00000  Uiso   1.00
C53    C     0.82427   0.80988   0.81903   0.00000  Uiso   1.00
C54    C     0.78912   0.85585   0.83325   0.00000  Uiso   1.00
C55    C     0.74071   0.94213   0.84004   0.00000  Uiso   1.00
C56    C     0.88991   0.69466   0.89013   0.00000  Uiso   1.00
C57    C     0.94944   0.68861   0.89436   0.00000  Uiso   1.00
C58    C     0.97154   0.67911   0.94303   0.00000  Uiso   1.00
C59    C     0.02870   0.66309   0.01335   0.00000  Uiso   1.00
C60    C     0.79002   0.69922   0.91956   0.00000  Uiso   1.00
C61    C     0.77625   0.65325   0.87954   0.00000  Uiso   1.00
C62    C     0.73312   0.61171   0.88326   0.00000  Uiso   1.00
C63    C     0.72745   0.57355   0.84255   0.00000  Uiso   1.00
C64    C     0.78573   0.75724   0.89207   0.00000  Uiso   1.00
C65    C     0.75056   0.80314   0.90635   0.00000  Uiso   1.00
C66    C     0.75287   0.85253   0.87620   0.00000  Uiso   1.00
C67    C     0.85372   0.69135   0.93299   0.00000  Uiso   1.00
C68    C     0.87573   0.68186   0.98167   0.00000  Uiso   1.00
C69    C     0.93529   0.67580   0.98597   0.00000  Uiso   1.00
H70    H     0.88481   0.70789   0.80727   0.00000  Uiso   1.00
H71    H     0.83484   0.62103   0.76278   0.00000  Uiso   1.00
H72    H     0.85229   0.81243   0.78587   0.00000  Uiso   1.00
H73    H     0.97743   0.69117   0.86118   0.00000  Uiso   1.00
H74    H     0.76346   0.52328   0.73235   0.00000  Uiso   1.00
H75    H     0.80026   0.92688   0.78104   0.00000  Uiso   1.00
H76    H     0.06416   0.67118   0.93985   0.00000  Uiso   1.00
H77    H     0.76184   0.69664   0.95294   0.00000  Uiso   1.00
H78    H     0.70512   0.60916   0.91644   0.00000  Uiso   1.00
H79    H     0.72257   0.80057   0.93952   0.00000  Uiso   1.00
H80    H     0.84771   0.67930   0.01483   0.00000  Uiso   1.00
H81    H     0.65818   0.51365   0.85706   0.00000  Uiso   1.00
H82    H     0.69498   0.91725   0.90575   0.00000  Uiso   1.00
H83    H     0.95888   0.66154   0.06456   0.00000  Uiso   1.00
O84    O     0.67571   0.46113   0.76806   0.00000  Uiso   1.00
O85    O     0.72400   0.99064   0.83194   0.00000  Uiso   1.00
O86    O     0.07023   0.65516   0.04029   0.00000  Uiso   1.00
N87    N     0.74648   0.53301   0.76672   0.00000  Uiso   1.00
N88    N     0.78088   0.91035   0.81223   0.00000  Uiso   1.00
N89    N     0.02760   0.67131   0.96070   0.00000  Uiso   1.00
N90    N     0.68982   0.52783   0.83382   0.00000  Uiso   1.00
N91    N     0.72422   0.90516   0.87934   0.00000  Uiso   1.00
N92    N     0.97095   0.66612   0.02781   0.00000  Uiso   1.00
C93    C     0.20531   0.64336   0.84064   0.00000  Uiso   1.00
C94    C     0.15655   0.68756   0.83667   0.00000  Uiso   1.00
C95    C     0.11845   0.69317   0.79595   0.00000  Uiso   1.00
C96    C     0.07687   0.73630   0.79961   0.00000  Uiso   1.00
C97    C     0.00168   0.79945   0.78691   0.00000  Uiso   1.00
C98    C     0.26055   0.67809   0.84921   0.00000  Uiso   1.00
C99    C     0.30988   0.67573   0.81903   0.00000  Uiso   1.00
C100   C     0.35585   0.71088   0.83325   0.00000  Uiso   1.00
C101   C     0.44213   0.75929   0.84004   0.00000  Uiso   1.00
C102   C     0.19466   0.61009   0.89013   0.00000  Uiso   1.00
C103   C     0.18861   0.55056   0.89436   0.00000  Uiso   1.00
C104   C     0.17911   0.52846   0.94303   0.00000  Uiso   1.00
C105   C     0.16309   0.47130   0.01335   0.00000  Uiso   1.00
C106   C     0.19922   0.70998   0.91956   0.00000  Uiso   1.00
C107   C     0.15325   0.72375   0.87954   0.00000  Uiso   1.00
C108   C     0.11171   0.76688   0.88326   0.00000  Uiso   1.00
C109   C     0.07355   0.77255   0.84255   0.00000  Uiso   1.00
C110   C     0.25724   0.71427   0.89207   0.00000  Uiso   1.00
C111   C     0.30314   0.74944   0.90635   0.00000  Uiso   1.00
C112   C     0.35253   0.74713   0.87620   0.00000  Uiso   1.00
C113   C     0.19135   0.64628   0.93299   0.00000  Uiso   1.00
C114   C     0.18186   0.62427   0.98167   0.00000  Uiso   1.00
C115   C     0.17580   0.56471   0.98597   0.00000  Uiso   1.00
H116   H     0.20789   0.61519   0.80727   0.00000  Uiso   1.00
H117   H     0.12103   0.66516   0.76278   0.00000  Uiso   1.00
H118   H     0.31243   0.64771   0.78587   0.00000  Uiso   1.00
H119   H     0.19117   0.52257   0.86118   0.00000  Uiso   1.00
H120   H     0.02328   0.73654   0.73235   0.00000  Uiso   1.00
H121   H     0.42688   0.69974   0.78104   0.00000  Uiso   1.00
H122   H     0.17118   0.43584   0.93985   0.00000  Uiso   1.00
H123   H     0.19664   0.73816   0.95294   0.00000  Uiso   1.00
H124   H     0.10916   0.79488   0.91644   0.00000  Uiso   1.00
H125   H     0.30057   0.77743   0.93952   0.00000  Uiso   1.00
H126   H     0.17930   0.65229   0.01483   0.00000  Uiso   1.00
H127   H     0.01365   0.84182   0.85706   0.00000  Uiso   1.00
H128   H     0.41725   0.80502   0.90575   0.00000  Uiso   1.00
H129   H     0.16154   0.54112   0.06456   0.00000  Uiso   1.00
O130   O     0.96113   0.82429   0.76806   0.00000  Uiso   1.00
O131   O     0.49064   0.77600   0.83194   0.00000  Uiso   1.00
O132   O     0.15516   0.42977   0.04029   0.00000  Uiso   1.00
N133   N     0.03301   0.75352   0.76672   0.00000  Uiso   1.00
N134   N     0.41035   0.71912   0.81223   0.00000  Uiso   1.00
N135   N     0.17131   0.47240   0.96070   0.00000  Uiso   1.00
N136   N     0.02783   0.81018   0.83382   0.00000  Uiso   1.00
N137   N     0.40516   0.77578   0.87934   0.00000  Uiso   1.00
N138   N     0.16612   0.52905   0.02781   0.00000  Uiso   1.00
C139   C     0.79469   0.35664   0.84064   0.00000  Uiso   1.00
C140   C     0.84345   0.31244   0.83667   0.00000  Uiso   1.00
C141   C     0.88155   0.30683   0.79595   0.00000  Uiso   1.00
C142   C     0.92313   0.26370   0.79961   0.00000  Uiso   1.00
C143   C     0.99832   0.20055   0.78691   0.00000  Uiso   1.00
C144   C     0.73945   0.32191   0.84921   0.00000  Uiso   1.00
C145   C     0.69012   0.32427   0.81903   0.00000  Uiso   1.00
C146   C     0.64415   0.28912   0.83325   0.00000  Uiso   1.00
C147   C     0.55787   0.24071   0.84004   0.00000  Uiso   1.00
C148   C     0.80534   0.38991   0.89013   0.00000  Uiso   1.00
C149   C     0.81139   0.44944   0.89436   0.00000  Uiso   1.00
C150   C     0.82089   0.47154   0.94303   0.00000  Uiso   1.00
C151   C     0.83691   0.52870   0.01335   0.00000  Uiso   1.00
C152   C     0.80078   0.29002   0.91956   0.00000  Uiso   1.00
C153   C     0.84675   0.27625   0.87954   0.00000  Uiso   1.00
C154   C     0.88829   0.23312   0.88326   0.00000  Uiso   1.00
C155   C     0.92645   0.22745   0.84255   0.00000  Uiso   1.00
C156   C     0.74276   0.28573   0.89207   0.00000  Uiso   1.00
C157   C     0.69686   0.25056   0.90635   0.00000  Uiso   1.00
C158   C     0.64747   0.25287   0.87620   0.00000  Uiso   1.00
C159   C     0.80865   0.35372   0.93299   0.00000  Uiso   1.00
C160   C     0.81814   0.37573   0.98167   0.00000  Uiso   1.00
C161   C     0.82420   0.43529   0.98597   0.00000  Uiso   1.00
H162   H     0.79211   0.38481   0.80727   0.00000  Uiso   1.00
H163   H     0.87897   0.33484   0.76278   0.00000  Uiso   1.00
H164   H     0.68757   0.35229   0.78587   0.00000  Uiso   1.00
H165   H     0.80883   0.47743   0.86118   0.00000  Uiso   1.00
H166   H     0.97672   0.26346   0.73235   0.00000  Uiso   1.00
H167   H     0.57312   0.30026   0.78104   0.00000  Uiso   1.00
H168   H     0.82882   0.56416   0.93985   0.00000  Uiso   1.00
H169   H     0.80336   0.26184   0.95294   0.00000  Uiso   1.00
H170   H     0.89084   0.20512   0.91644   0.00000  Uiso   1.00
H171   H     0.69943   0.22257   0.93952   0.00000  Uiso   1.00
H172   H     0.82070   0.34771   0.01483   0.00000  Uiso   1.00
H173   H     0.98635   0.15818   0.85706   0.00000  Uiso   1.00
H174   H     0.58275   0.19498   0.90575   0.00000  Uiso   1.00
H175   H     0.83846   0.45888   0.06456   0.00000  Uiso   1.00
O176   O     0.03887   0.17571   0.76806   0.00000  Uiso   1.00
O177   O     0.50936   0.22400   0.83194   0.00000  Uiso   1.00
O178   O     0.84484   0.57023   0.04029   0.00000  Uiso   1.00
N179   N     0.96699   0.24648   0.76672   0.00000  Uiso   1.00
N180   N     0.58965   0.28088   0.81223   0.00000  Uiso   1.00
N181   N     0.82869   0.52760   0.96070   0.00000  Uiso   1.00
N182   N     0.97217   0.18982   0.83382   0.00000  Uiso   1.00
N183   N     0.59484   0.22422   0.87934   0.00000  Uiso   1.00
N184   N     0.83388   0.47095   0.02781   0.00000  Uiso   1.00
C185   C     0.35664   0.79469   0.65936   0.00000  Uiso   1.00
C186   C     0.31244   0.84345   0.66333   0.00000  Uiso   1.00
C187   C     0.30683   0.88155   0.70405   0.00000  Uiso   1.00
C188   C     0.26370   0.92313   0.70039   0.00000  Uiso   1.00
C189   C     0.20055   0.99832   0.71309   0.00000  Uiso   1.00
C190   C     0.32191   0.73945   0.65079   0.00000  Uiso   1.00
C191   C     0.32427   0.69012   0.68097   0.00000  Uiso   1.00
C192   C     0.28912   0.64415   0.66675   0.00000  Uiso   1.00
C193   C     0.24071   0.55787   0.65996   0.00000  Uiso   1.00
C194   C     0.38991   0.80534   0.60987   0.00000  Uiso   1.00
C195   C     0.44944   0.81139   0.60564   0.00000  Uiso   1.00
C196   C     0.47154   0.82089   0.55697   0.00000  Uiso   1.00
C197   C     0.52870   0.83691   0.48665   0.00000  Uiso   1.00
C198   C     0.29002   0.80078   0.58044   0.00000  Uiso   1.00
C199   C     0.27625   0.84675   0.62046   0.00000  Uiso   1.00
C200   C     0.23312   0.88829   0.61674   0.00000  Uiso   1.00
C201   C     0.22745   0.92645   0.65745   0.00000  Uiso   1.00
C202   C     0.28573   0.74276   0.60793   0.00000  Uiso   1.00
C203   C     0.25056   0.69686   0.59365   0.00000  Uiso   1.00
C204   C     0.25287   0.64747   0.62380   0.00000  Uiso   1.00
C205   C     0.35372   0.80865   0.56701   0.00000  Uiso   1.00
C206   C     0.37573   0.81814   0.51833   0.00000  Uiso   1.00
C207   C     0.43529   0.82420   0.51403   0.00000  Uiso   1.00
H208   H     0.38481   0.79211   0.69273   0.00000  Uiso   1.00
H209   H     0.33484   0.87897   0.73722   0.00000  Uiso   1.00
H210   H     0.35229   0.68757   0.71413   0.00000  Uiso   1.00
H211   H     0.47743   0.80883   0.63882   0.00000  Uiso   1.00
H212   H     0.26346   0.97672   0.76765   0.00000  Uiso   1.00
H213   H     0.30026   0.57312   0.71896   0.00000  Uiso   1.00
H214   H     0.56416   0.82882   0.56015   0.00000  Uiso   1.00
H215   H     0.26184   0.80336   0.54706   0.00000  Uiso   1.00
H216   H     0.20512   0.89084   0.58356   0.00000  Uiso   1.00
H217   H     0.22257   0.69943   0.56048   0.00000  Uiso   1.00
H218   H     0.34771   0.82070   0.48517   0.00000  Uiso   1.00
H219   H     0.15818   0.98635   0.64294   0.00000  Uiso   1.00
H220   H     0.19498   0.58275   0.59425   0.00000  Uiso   1.00
H221   H     0.45888   0.83846   0.43544   0.00000  Uiso   1.00
O222   O     0.17571   0.03887   0.73194   0.00000  Uiso   1.00
O223   O     0.22400   0.50936   0.66806   0.00000  Uiso   1.00
O224   O     0.57023   0.84484   0.45971   0.00000  Uiso   1.00
N225   N     0.24648   0.96699   0.73328   0.00000  Uiso   1.00
N226   N     0.28088   0.58965   0.68777   0.00000  Uiso   1.00
N227   N     0.52760   0.82869   0.53930   0.00000  Uiso   1.00
N228   N     0.18982   0.97217   0.66618   0.00000  Uiso   1.00
N229   N     0.22422   0.59484   0.62066   0.00000  Uiso   1.00
N230   N     0.47095   0.83388   0.47219   0.00000  Uiso   1.00
C231   C     0.64336   0.20531   0.65936   0.00000  Uiso   1.00
C232   C     0.68756   0.15655   0.66333   0.00000  Uiso   1.00
C233   C     0.69317   0.11845   0.70405   0.00000  Uiso   1.00
C234   C     0.73630   0.07687   0.70039   0.00000  Uiso   1.00
C235   C     0.79945   0.00168   0.71309   0.00000  Uiso   1.00
C236   C     0.67809   0.26055   0.65079   0.00000  Uiso   1.00
C237   C     0.67573   0.30988   0.68097   0.00000  Uiso   1.00
C238   C     0.71088   0.35585   0.66675   0.00000  Uiso   1.00
C239   C     0.75929   0.44213   0.65996   0.00000  Uiso   1.00
C240   C     0.61009   0.19466   0.60987   0.00000  Uiso   1.00
C241   C     0.55056   0.18861   0.60564   0.00000  Uiso   1.00
C242   C     0.52846   0.17911   0.55697   0.00000  Uiso   1.00
C243   C     0.47130   0.16309   0.48665   0.00000  Uiso   1.00
C244   C     0.70998   0.19922   0.58044   0.00000  Uiso   1.00
C245   C     0.72375   0.15325   0.62046   0.00000  Uiso   1.00
C246   C     0.76688   0.11171   0.61674   0.00000  Uiso   1.00
C247   C     0.77255   0.07355   0.65745   0.00000  Uiso   1.00
C248   C     0.71427   0.25724   0.60793   0.00000  Uiso   1.00
C249   C     0.74944   0.30314   0.59365   0.00000  Uiso   1.00
C250   C     0.74713   0.35253   0.62380   0.00000  Uiso   1.00
C251   C     0.64628   0.19135   0.56701   0.00000  Uiso   1.00
C252   C     0.62427   0.18186   0.51833   0.00000  Uiso   1.00
C253   C     0.56471   0.17580   0.51403   0.00000  Uiso   1.00
H254   H     0.61519   0.20789   0.69273   0.00000  Uiso   1.00
H255   H     0.66516   0.12103   0.73722   0.00000  Uiso   1.00
H256   H     0.64771   0.31243   0.71413   0.00000  Uiso   1.00
H257   H     0.52257   0.19117   0.63882   0.00000  Uiso   1.00
H258   H     0.73654   0.02328   0.76765   0.00000  Uiso   1.00
H259   H     0.69974   0.42688   0.71896   0.00000  Uiso   1.00
H260   H     0.43584   0.17118   0.56015   0.00000  Uiso   1.00
H261   H     0.73816   0.19664   0.54706   0.00000  Uiso   1.00
H262   H     0.79488   0.10916   0.58356   0.00000  Uiso   1.00
H263   H     0.77743   0.30057   0.56048   0.00000  Uiso   1.00
H264   H     0.65229   0.17930   0.48517   0.00000  Uiso   1.00
H265   H     0.84182   0.01365   0.64294   0.00000  Uiso   1.00
H266   H     0.80502   0.41725   0.59425   0.00000  Uiso   1.00
H267   H     0.54112   0.16154   0.43544   0.00000  Uiso   1.00
O268   O     0.82429   0.96113   0.73194   0.00000  Uiso   1.00
O269   O     0.77600   0.49064   0.66806   0.00000  Uiso   1.00
O270   O     0.42977   0.15516   0.45971   0.00000  Uiso   1.00
N271   N     0.75352   0.03301   0.73328   0.00000  Uiso   1.00
N272   N     0.71912   0.41035   0.68777   0.00000  Uiso   1.00
N273   N     0.47240   0.17131   0.53930   0.00000  Uiso   1.00
N274   N     0.81018   0.02783   0.66618   0.00000  Uiso   1.00
N275   N     0.77578   0.40516   0.62066   0.00000  Uiso   1.00
N276   N     0.52905   0.16612   0.47219   0.00000  Uiso   1.00
C277   C     0.29469   0.14336   0.65936   0.00000  Uiso   1.00
C278   C     0.34345   0.18756   0.66333   0.00000  Uiso   1.00
C279   C     0.38155   0.19317   0.70405   0.00000  Uiso   1.00
C280   C     0.42313   0.23630   0.70039   0.00000  Uiso   1.00
C281   C     0.49832   0.29945   0.71309   0.00000  Uiso   1.00
C282   C     0.23945   0.17809   0.65079   0.00000  Uiso   1.00
C283   C     0.19012   0.17573   0.68097   0.00000  Uiso   1.00
C284   C     0.14415   0.21088   0.66675   0.00000  Uiso   1.00
C285   C     0.05787   0.25929   0.65996   0.00000  Uiso   1.00
C286   C     0.30534   0.11009   0.60987   0.00000  Uiso   1.00
C287   C     0.31139   0.05056   0.60564   0.00000  Uiso   1.00
C288   C     0.32089   0.02846   0.55697   0.00000  Uiso   1.00
C289   C     0.33691   0.97130   0.48665   0.00000  Uiso   1.00
C290   C     0.30078   0.20998   0.58044   0.00000  Uiso   1.00
C291   C     0.34675   0.22375   0.62046   0.00000  Uiso   1.00
C292   C     0.38829   0.26688   0.61674   0.00000  Uiso   1.00
C293   C     0.42645   0.27255   0.65745   0.00000  Uiso   1.00
C294   C     0.24276   0.21427   0.60793   0.00000  Uiso   1.00
C295   C     0.19686   0.24944   0.59365   0.00000  Uiso   1.00
C296   C     0.14747   0.24713   0.62380   0.00000  Uiso   1.00
C297   C     0.30865   0.14628   0.56701   0.00000  Uiso   1.00
C298   C     0.31814   0.12427   0.51833   0.00000  Uiso   1.00
C299   C     0.32420   0.06471   0.51403   0.00000  Uiso   1.00
H300   H     0.29211   0.11519   0.69273   0.00000  Uiso   1.00
H301   H     0.37897   0.16516   0.73722   0.00000  Uiso   1.00
H302   H     0.18757   0.14771   0.71413   0.00000  Uiso   1.00
H303   H     0.30883   0.02257   0.63882   0.00000  Uiso   1.00
H304   H     0.47672   0.23654   0.76765   0.00000  Uiso   1.00
H305   H     0.07312   0.19974   0.71896   0.00000  Uiso   1.00
H306   H     0.32882   0.93584   0.56015   0.00000  Uiso   1.00
H307   H     0.30336   0.23816   0.54706   0.00000  Uiso   1.00
H308   H     0.39084   0.29488   0.58356   0.00000  Uiso   1.00
H309   H     0.19943   0.27743   0.56048   0.00000  Uiso   1.00
H310   H     0.32070   0.15229   0.48517   0.00000  Uiso   1.00
H311   H     0.48635   0.34182   0.64294   0.00000  Uiso   1.00
H312   H     0.08275   0.30502   0.59425   0.00000  Uiso   1.00
H313   H     0.33846   0.04112   0.43544   0.00000  Uiso   1.00
O314   O     0.53887   0.32429   0.73194   0.00000  Uiso   1.00
O315   O     0.00936   0.27600   0.66806   0.00000  Uiso   1.00
O316   O     0.34484   0.92977   0.45971   0.00000  Uiso   1.00
N317   N     0.46699   0.25352   0.73328   0.00000  Uiso   1.00
N318   N     0.08965   0.21912   0.68777   0.00000  Uiso   1.00
N319   N     0.32869   0.97240   0.53930   0.00000  Uiso   1.00
N320   N     0.47217   0.31018   0.66618   0.00000  Uiso   1.00
N321   N     0.09484   0.27578   0.62066   0.00000  Uiso   1.00
N322   N     0.33388   0.02905   0.47219   0.00000  Uiso   1.00
C323   C     0.70531   0.85664   0.65936   0.00000  Uiso   1.00
C324   C     0.65655   0.81244   0.66333   0.00000  Uiso   1.00
C325   C     0.61845   0.80683   0.70405   0.00000  Uiso   1.00
C326   C     0.57687   0.76370   0.70039   0.00000  Uiso   1.00
C327   C     0.50168   0.70055   0.71309   0.00000  Uiso   1.00
C328   C     0.76055   0.82191   0.65079   0.00000  Uiso   1.00
C329   C     0.80988   0.82427   0.68097   0.00000  Uiso   1.00
C330   C     0.85585   0.78912   0.66675   0.00000  Uiso   1.00
C331   C     0.94213   0.74071   0.65996   0.00000  Uiso   1.00
C332   C     0.69466   0.88991   0.60987   0.00000  Uiso   1.00
C333   C     0.68861   0.94944   0.60564   0.00000  Uiso   1.00
C334   C     0.67911   0.97154   0.55697   0.00000  Uiso   1.00
C335   C     0.66309   0.02870   0.48665   0.00000  Uiso   1.00
C336   C     0.69922   0.79002   0.58044   0.00000  Uiso   1.00
C337   C     0.65325   0.77625   0.62046   0.00000  Uiso   1.00
C338   C     0.61171   0.73312   0.61674   0.00000  Uiso   1.00
C339   C     0.57355   0.72745   0.65745   0.00000  Uiso   1.00
C340   C     0.75724   0.78573   0.60793   0.00000  Uiso   1.00
C341   C     0.80314   0.75056   0.59365   0.00000  Uiso   1.00
C342   C     0.85253   0.75287   0.62380   0.00000  Uiso   1.00
C343   C     0.69135   0.85372   0.56701   0.00000  Uiso   1.00
C344   C     0.68186   0.87573   0.51833   0.00000  Uiso   1.00
C345   C     0.67580   0.93529   0.51403   0.00000  Uiso   1.00
H346   H     0.70789   0.88481   0.69273   0.00000  Uiso   1.00
H347   H     0.62103   0.83484   0.73722   0.00000  Uiso   1.00
H348   H     0.81243   0.85229   0.71413   0.00000  Uiso   1.00
H349   H     0.69117   0.97743   0.63882   0.00000  Uiso   1.00
H350   H     0.52328   0.76346   0.76765   0.00000  Uiso   1.00
H351   H     0.92688   0.80026   0.71896   0.00000  Uiso   1.00
H352   H     0.67118   0.06416   0.56015   0.00000  Uiso   1.00
H353   H     0.69664   0.76184   0.54706   0.00000  Uiso   1.00
H354   H     0.60916   0.70512   0.58356   0.00000  Uiso   1.00
H355   H     0.80057   0.72257   0.56048   0.00000  Uiso   1.00
H356   H     0.67930   0.84771   0.48517   0.00000  Uiso   1.00
H357   H     0.51365   0.65818   0.64294   0.00000  Uiso   1.00
H358   H     0.91725   0.69498   0.59425   0.00000  Uiso   1.00
H359   H     0.66154   0.95888   0.43544   0.00000  Uiso   1.00
O360   O     0.46113   0.67571   0.73194   0.00000  Uiso   1.00
O361   O     0.99064   0.72400   0.66806   0.00000  Uiso   1.00
O362   O     0.65516   0.07023   0.45971   0.00000  Uiso   1.00
N363   N     0.53301   0.74648   0.73328   0.00000  Uiso   1.00
N364   N     0.91035   0.78088   0.68777   0.00000  Uiso   1.00
N365   N     0.67131   0.02760   0.53930   0.00000  Uiso   1.00
N366   N     0.52783   0.68982   0.66618   0.00000  Uiso   1.00
N367   N     0.90516   0.72422   0.62066   0.00000  Uiso   1.00
N368   N     0.66612   0.97095   0.47219   0.00000  Uiso   1.00
C369   C     0.35664   0.20531   0.15936   0.00000  Uiso   1.00
C370   C     0.31244   0.15655   0.16333   0.00000  Uiso   1.00
C371   C     0.30683   0.11845   0.20405   0.00000  Uiso   1.00
C372   C     0.26370   0.07687   0.20039   0.00000  Uiso   1.00
C373   C     0.20055   0.00168   0.21309   0.00000  Uiso   1.00
C374   C     0.32191   0.26055   0.15079   0.00000  Uiso   1.00
C375   C     0.32427   0.30988   0.18097   0.00000  Uiso   1.00
C376   C     0.28912   0.35585   0.16675   0.00000  Uiso   1.00
C377   C     0.24071   0.44213   0.15996   0.00000  Uiso   1.00
C378   C     0.38991   0.19466   0.10987   0.00000  Uiso   1.00
C379   C     0.44944   0.18861   0.10564   0.00000  Uiso   1.00
C380   C     0.47154   0.17911   0.05697   0.00000  Uiso   1.00
C381   C     0.52870   0.16309   0.98665   0.00000  Uiso   1.00
C382   C     0.29002   0.19922   0.08044   0.00000  Uiso   1.00
C383   C     0.27625   0.15325   0.12046   0.00000  Uiso   1.00
C384   C     0.23312   0.11171   0.11674   0.00000  Uiso   1.00
C385   C     0.22745   0.07355   0.15745   0.00000  Uiso   1.00
C386   C     0.28573   0.25724   0.10793   0.00000  Uiso   1.00
C387   C     0.25056   0.30314   0.09365   0.00000  Uiso   1.00
C388   C     0.25287   0.35253   0.12380   0.00000  Uiso   1.00
C389   C     0.35372   0.19135   0.06701   0.00000  Uiso   1.00
C390   C     0.37573   0.18186   0.01833   0.00000  Uiso   1.00
C391   C     0.43529   0.17580   0.01403   0.00000  Uiso   1.00
H392   H     0.38481   0.20789   0.19273   0.00000  Uiso   1.00
H393   H     0.33484   0.12103   0.23722   0.00000  Uiso   1.00
H394   H     0.35229   0.31243   0.21413   0.00000  Uiso   1.00
H395   H     0.47743   0.19117   0.13882   0.00000  Uiso   1.00
H396   H     0.26346   0.02328   0.26765   0.00000  Uiso   1.00
H397   H     0.30026   0.42688   0.21896   0.00000  Uiso   1.00
H398   H     0.56416   0.17118   0.06015   0.00000  Uiso   1.00
H399   H     0.26184   0.19664   0.04706   0.00000  Uiso   1.00
H400   H     0.20512   0.10916   0.08356   0.00000  Uiso   1.00
H401   H     0.22257   0.30057   0.06048   0.00000  Uiso   1.00
H402   H     0.34771   0.17930   0.98517   0.00000  Uiso   1.00
H403   H     0.15818   0.01365   0.14294   0.00000  Uiso   1.00
H404   H     0.19498   0.41725   0.09425   0.00000  Uiso   1.00
H405   H     0.45888   0.16154   0.93544   0.00000  Uiso   1.00
O406   O     0.17571   0.96113   0.23194   0.00000  Uiso   1.00
O407   O     0.22400   0.49064   0.16806   0.00000  Uiso   1.00
O408   O     0.57023   0.15516   0.95971   0.00000  Uiso   1.00
N409   N     0.24648   0.03301   0.23328   0.00000  Uiso   1.00
N410   N     0.28088   0.41035   0.18777   0.00000  Uiso   1.00
N411   N     0.52760   0.17131   0.03930   0.00000  Uiso   1.00
N412   N     0.18982   0.02783   0.16618   0.00000  Uiso   1.00
N413   N     0.22422   0.40516   0.12066   0.00000  Uiso   1.00
N414   N     0.47095   0.16612   0.97219   0.00000  Uiso   1.00
C415   C     0.64336   0.79469   0.15936   0.00000  Uiso   1.00
C416   C     0.68756   0.84345   0.16333   0.00000  Uiso   1.00
C417   C     0.69317   0.88155   0.20405   0.00000  Uiso   1.00
C418   C     0.73630   0.92313   0.20039   0.00000  Uiso   1.00
C419   C     0.79945   0.99832   0.21309   0.00000  Uiso   1.00
C420   C     0.67809   0.73945   0.15079   0.00000  Uiso   1.00
C421   C     0.67573   0.69012   0.18097   0.00000  Uiso   1.00
C422   C     0.71088   0.64415   0.16675   0.00000  Uiso   1.00
C423   C     0.75929   0.55787   0.15996   0.00000  Uiso   1.00
C424   C     0.61009   0.80534   0.10987   0.00000  Uiso   1.00
C425   C     0.55056   0.81139   0.10564   0.00000  Uiso   1.00
C426   C     0.52846   0.82089   0.05697   0.00000  Uiso   1.00
C427   C     0.47130   0.83691   0.98665   0.00000  Uiso   1.00
C428   C     0.70998   0.80078   0.08044   0.00000  Uiso   1.00
C429   C     0.72375   0.84675   0.12046   0.00000  Uiso   1.00
C430   C     0.76688   0.88829   0.11674   0.00000  Uiso   1.00
C431   C     0.77255   0.92645   0.15745   0.00000  Uiso   1.00
C432   C     0.71427   0.74276   0.10793   0.00000  Uiso   1.00
C433   C     0.74944   0.69686   0.09365   0.00000  Uiso   1.00
C434   C     0.74713   0.64747   0.12380   0.00000  Uiso   1.00
C435   C     0.64628   0.80865   0.06701   0.00000  Uiso   1.00
C436   C     0.62427   0.81814   0.01833   0.00000  Uiso   1.00
C437   C     0.56471   0.82420   0.01403   0.00000  Uiso   1.00
H438   H     0.61519   0.79211   0.19273   0.00000  Uiso   1.00
H439   H     0.66516   0.87897   0.23722   0.00000  Uiso   1.00
H440   H     0.64771   0.68757   0.21413   0.00000  Uiso   1.00
H441   H     0.52257   0.80883   0.13882   0.00000  Uiso   1.00
H442   H     0.73654   0.97672   0.26765   0.00000  Uiso   1.00
H443   H     0.69974   0.57312   0.21896   0.00000  Uiso   1.00
H444   H     0.43584   0.82882   0.06015   0.00000  Uiso   1.00
H445   H     0.73816   0.80336   0.04706   0.00000  Uiso   1.00
H446   H     0.79488   0.89084   0.08356   0.00000  Uiso   1.00
H447   H     0.77743   0.69943   0.06048   0.00000  Uiso   1.00
H448   H     0.65229   0.82070   0.98517   0.00000  Uiso   1.00
H449   H     0.84182   0.98635   0.14294   0.00000  Uiso   1.00
H450   H     0.80502   0.58275   0.09425   0.00000  Uiso   1.00
H451   H     0.54112   0.83846   0.93544   0.00000  Uiso   1.00
O452   O     0.82429   0.03887   0.23194   0.00000  Uiso   1.00
O453   O     0.77600   0.50936   0.16806   0.00000  Uiso   1.00
O454   O     0.42977   0.84484   0.95971   0.00000  Uiso   1.00
N455   N     0.75352   0.96699   0.23328   0.00000  Uiso   1.00
N456   N     0.71912   0.58965   0.18777   0.00000  Uiso   1.00
N457   N     0.47240   0.82869   0.03930   0.00000  Uiso   1.00
N458   N     0.81018   0.97217   0.16618   0.00000  Uiso   1.00
N459   N     0.77578   0.59484   0.12066   0.00000  Uiso   1.00
N460   N     0.52905   0.83388   0.97219   0.00000  Uiso   1.00
C461   C     0.29469   0.85664   0.15936   0.00000  Uiso   1.00
C462   C     0.34345   0.81244   0.16333   0.00000  Uiso   1.00
C463   C     0.38155   0.80683   0.20405   0.00000  Uiso   1.00
C464   C     0.42313   0.76370   0.20039   0.00000  Uiso   1.00
C465   C     0.49832   0.70055   0.21309   0.00000  Uiso   1.00
C466   C     0.23945   0.82191   0.15079   0.00000  Uiso   1.00
C467   C     0.19012   0.82427   0.18097   0.00000  Uiso   1.00
C468   C     0.14415   0.78912   0.16675   0.00000  Uiso   1.00
C469   C     0.05787   0.74071   0.15996   0.00000  Uiso   1.00
C470   C     0.30534   0.88991   0.10987   0.00000  Uiso   1.00
C471   C     0.31139   0.94944   0.10564   0.00000  Uiso   1.00
C472   C     0.32089   0.97154   0.05697   0.00000  Uiso   1.00
C473   C     0.33691   0.02870   0.98665   0.00000  Uiso   1.00
C474   C     0.30078   0.79002   0.08044   0.00000  Uiso   1.00
C475   C     0.34675   0.77625   0.12046   0.00000  Uiso   1.00
C476   C     0.38829   0.73312   0.11674   0.00000  Uiso   1.00
C477   C     0.42645   0.72745   0.15745   0.00000  Uiso   1.00
C478   C     0.24276   0.78573   0.10793   0.00000  Uiso   1.00
C479   C     0.19686   0.75056   0.09365   0.00000  Uiso   1.00
C480   C     0.14747   0.75287   0.12380   0.00000  Uiso   1.00
C481   C     0.30865   0.85372   0.06701   0.00000  Uiso   1.00
C482   C     0.31814   0.87573   0.01833   0.00000  Uiso   1.00
C483   C     0.32420   0.93529   0.01403   0.00000  Uiso   1.00
H484   H     0.29211   0.88481   0.19273   0.00000  Uiso   1.00
H485   H     0.37897   0.83484   0.23722   0.00000  Uiso   1.00
H486   H     0.18757   0.85229   0.21413   0.00000  Uiso   1.00
H487   H     0.30883   0.97743   0.13882   0.00000  Uiso   1.00
H488   H     0.47672   0.76346   0.26765   0.00000  Uiso   1.00
H489   H     0.07312   0.80026   0.21896   0.00000  Uiso   1.00
H490   H     0.32882   0.06416   0.06015   0.00000  Uiso   1.00
H491   H     0.30336   0.76184   0.04706   0.00000  Uiso   1.00
H492   H     0.39084   0.70512   0.08356   0.00000  Uiso   1.00
H493   H     0.19943   0.72257   0.06048   0.00000  Uiso   1.00
H494   H     0.32070   0.84771   0.98517   0.00000  Uiso   1.00
H495   H     0.48635   0.65818   0.14294   0.00000  Uiso   1.00
H496   H     0.08275   0.69498   0.09425   0.00000  Uiso   1.00
H497   H     0.33846   0.95888   0.93544   0.00000  Uiso   1.00
O498   O     0.53887   0.67571   0.23194   0.00000  Uiso   1.00
O499   O     0.00936   0.72400   0.16806   0.00000  Uiso   1.00
O500   O     0.34484   0.07023   0.95971   0.00000  Uiso   1.00
N501   N     0.46699   0.74648   0.23328   0.00000  Uiso   1.00
N502   N     0.08965   0.78088   0.18777   0.00000  Uiso   1.00
N503   N     0.32869   0.02760   0.03930   0.00000  Uiso   1.00
N504   N     0.47217   0.68982   0.16618   0.00000  Uiso   1.00
N505   N     0.09484   0.72422   0.12066   0.00000  Uiso   1.00
N506   N     0.33388   0.97095   0.97219   0.00000  Uiso   1.00
C507   C     0.70531   0.14336   0.15936   0.00000  Uiso   1.00
C508   C     0.65655   0.18756   0.16333   0.00000  Uiso   1.00
C509   C     0.61845   0.19317   0.20405   0.00000  Uiso   1.00
C510   C     0.57687   0.23630   0.20039   0.00000  Uiso   1.00
C511   C     0.50168   0.29945   0.21309   0.00000  Uiso   1.00
C512   C     0.76055   0.17809   0.15079   0.00000  Uiso   1.00
C513   C     0.80988   0.17573   0.18097   0.00000  Uiso   1.00
C514   C     0.85585   0.21088   0.16675   0.00000  Uiso   1.00
C515   C     0.94213   0.25929   0.15996   0.00000  Uiso   1.00
C516   C     0.69466   0.11009   0.10987   0.00000  Uiso   1.00
C517   C     0.68861   0.05056   0.10564   0.00000  Uiso   1.00
C518   C     0.67911   0.02846   0.05697   0.00000  Uiso   1.00
C519   C     0.66309   0.97130   0.98665   0.00000  Uiso   1.00
C520   C     0.69922   0.20998   0.08044   0.00000  Uiso   1.00
C521   C     0.65325   0.22375   0.12046   0.00000  Uiso   1.00
C522   C     0.61171   0.26688   0.11674   0.00000  Uiso   1.00
C523   C     0.57355   0.27255   0.15745   0.00000  Uiso   1.00
C524   C     0.75724   0.21427   0.10793   0.00000  Uiso   1.00
C525   C     0.80314   0.24944   0.09365   0.00000  Uiso   1.00
C526   C     0.85253   0.24713   0.12380   0.00000  Uiso   1.00
C527   C     0.69135   0.14628   0.06701   0.00000  Uiso   1.00
C528   C     0.68186   0.12427   0.01833   0.00000  Uiso   1.00
C529   C     0.67580   0.06471   0.01403   0.00000  Uiso   1.00
H530   H     0.70789   0.11519   0.19273   0.00000  Uiso   1.00
H531   H     0.62103   0.16516   0.23722   0.00000  Uiso   1.00
H532   H     0.81243   0.14771   0.21413   0.00000  Uiso   1.00
H533   H     0.69117   0.02257   0.13882   0.00000  Uiso   1.00
H534   H     0.52328   0.23654   0.26765   0.00000  Uiso   1.00
H535   H     0.92688   0.19974   0.21896   0.00000  Uiso   1.00
H536   H     0.67118   0.93584   0.06015   0.00000  Uiso   1.00
H537   H     0.69664   0.23816   0.04706   0.00000  Uiso   1.00
H538   H     0.60916   0.29488   0.08356   0.00000  Uiso   1.00
H539   H     0.80057   0.27743   0.06048   0.00000  Uiso   1.00
H540   H     0.67930   0.15229   0.98517   0.00000  Uiso   1.00
H541   H     0.51365   0.34182   0.14294   0.00000  Uiso   1.00
H542   H     0.91725   0.30502   0.09425   0.00000  Uiso   1.00
H543   H     0.66154   0.04112   0.93544   0.00000  Uiso   1.00
O544   O     0.46113   0.32429   0.23194   0.00000  Uiso   1.00
O545   O     0.99064   0.27600   0.16806   0.00000  Uiso   1.00
O546   O     0.65516   0.92977   0.95971   0.00000  Uiso   1.00
N547   N     0.53301   0.25352   0.23328   0.00000  Uiso   1.00
N548   N     0.91035   0.21912   0.18777   0.00000  Uiso   1.00
N549   N     0.67131   0.97240   0.03930   0.00000  Uiso   1.00
N550   N     0.52783   0.31018   0.16618   0.00000  Uiso   1.00
N551   N     0.90516   0.27578   0.12066   0.00000  Uiso   1.00
N552   N     0.66612   0.02905   0.97219   0.00000  Uiso   1.00
C553   C     0.14336   0.70531   0.34064   0.00000  Uiso   1.00
C554   C     0.18756   0.65655   0.33667   0.00000  Uiso   1.00
C555   C     0.19317   0.61845   0.29595   0.00000  Uiso   1.00
C556   C     0.23630   0.57687   0.29961   0.00000  Uiso   1.00
C557   C     0.29945   0.50168   0.28691   0.00000  Uiso   1.00
C558   C     0.17809   0.76055   0.34921   0.00000  Uiso   1.00
C559   C     0.17573   0.80988   0.31903   0.00000  Uiso   1.00
C560   C     0.21088   0.85585   0.33325   0.00000  Uiso   1.00
C561   C     0.25929   0.94213   0.34004   0.00000  Uiso   1.00
C562   C     0.11009   0.69466   0.39013   0.00000  Uiso   1.00
C563   C     0.05056   0.68861   0.39436   0.00000  Uiso   1.00
C564   C     0.02846   0.67911   0.44303   0.00000  Uiso   1.00
C565   C     0.97130   0.66309   0.51335   0.00000  Uiso   1.00
C566   C     0.20998   0.69922   0.41956   0.00000  Uiso   1.00
C567   C     0.22375   0.65325   0.37954   0.00000  Uiso   1.00
C568   C     0.26688   0.61171   0.38326   0.00000  Uiso   1.00
C569   C     0.27255   0.57355   0.34255   0.00000  Uiso   1.00
C570   C     0.21427   0.75724   0.39207   0.00000  Uiso   1.00
C571   C     0.24944   0.80314   0.40635   0.00000  Uiso   1.00
C572   C     0.24713   0.85253   0.37620   0.00000  Uiso   1.00
C573   C     0.14628   0.69135   0.43299   0.00000  Uiso   1.00
C574   C     0.12427   0.68186   0.48167   0.00000  Uiso   1.00
C575   C     0.06471   0.67580   0.48597   0.00000  Uiso   1.00
H576   H     0.11519   0.70789   0.30727   0.00000  Uiso   1.00
H577   H     0.16516   0.62103   0.26278   0.00000  Uiso   1.00
H578   H     0.14771   0.81243   0.28587   0.00000  Uiso   1.00
H579   H     0.02257   0.69117   0.36118   0.00000  Uiso   1.00
H580   H     0.23654   0.52328   0.23235   0.00000  Uiso   1.00
H581   H     0.19974   0.92688   0.28104   0.00000  Uiso   1.00
H582   H     0.93584   0.67118   0.43985   0.00000  Uiso   1.00
H583   H     0.23816   0.69664   0.45294   0.00000  Uiso   1.00
H584   H     0.29488   0.60916   0.41644   0.00000  Uiso   1.00
H585   H     0.27743   0.80057   0.43952   0.00000  Uiso   1.00
H586   H     0.15229   0.67930   0.51483   0.00000  Uiso   1.00
H587   H     0.34182   0.51365   0.35706   0.00000  Uiso   1.00
H588   H     0.30502   0.91725   0.40575   0.00000  Uiso   1.00
H589   H     0.04112   0.66154   0.56456   0.00000  Uiso   1.00
O590   O     0.32429   0.46113   0.26806   0.00000  Uiso   1.00
O591   O     0.27600   0.99064   0.33194   0.00000  Uiso   1.00
O592   O     0.92977   0.65516   0.54029   0.00000  Uiso   1.00
N593   N     0.25352   0.53301   0.26672   0.00000  Uiso   1.00
N594   N     0.21912   0.91035   0.31223   0.00000  Uiso   1.00
N595   N     0.97240   0.67131   0.46070   0.00000  Uiso   1.00
N596   N     0.31018   0.52783   0.33382   0.00000  Uiso   1.00
N597   N     0.27578   0.90516   0.37934   0.00000  Uiso   1.00
N598   N     0.02905   0.66612   0.52781   0.00000  Uiso   1.00
C599   C     0.85664   0.29469   0.34064   0.00000  Uiso   1.00
C600   C     0.81244   0.34345   0.33667   0.00000  Uiso   1.00
C601   C     0.80683   0.38155   0.29595   0.00000  Uiso   1.00
C602   C     0.76370   0.42313   0.29961   0.00000  Uiso   1.00
C603   C     0.70055   0.49832   0.28691   0.00000  Uiso   1.00
C604   C     0.82191   0.23945   0.34921   0.00000  Uiso   1.00
C605   C     0.82427   0.19012   0.31903   0.00000  Uiso   1.00
C606   C     0.78912   0.14415   0.33325   0.00000  Uiso   1.00
C607   C     0.74071   0.05787   0.34004   0.00000  Uiso   1.00
C608   C     0.88991   0.30534   0.39013   0.00000  Uiso   1.00
C609   C     0.94944   0.31139   0.39436   0.00000  Uiso   1.00
C610   C     0.97154   0.32089   0.44303   0.00000  Uiso   1.00
C611   C     0.02870   0.33691   0.51335   0.00000  Uiso   1.00
C612   C     0.79002   0.30078   0.41956   0.00000  Uiso   1.00
C613   C     0.77625   0.34675   0.37954   0.00000  Uiso   1.00
C614   C     0.73312   0.38829   0.38326   0.00000  Uiso   1.00
C615   C     0.72745   0.42645   0.34255   0.00000  Uiso   1.00
C616   C     0.78573   0.24276   0.39207   0.00000  Uiso   1.00
C617   C     0.75056   0.19686   0.40635   0.00000  Uiso   1.00
C618   C     0.75287   0.14747   0.37620   0.00000  Uiso   1.00
C619   C     0.85372   0.30865   0.43299   0.00000  Uiso   1.00
C620   C     0.87573   0.31814   0.48167   0.00000  Uiso   1.00
C621   C     0.93529   0.32420   0.48597   0.00000  Uiso   1.00
H622   H     0.88481   0.29211   0.30727   0.00000  Uiso   1.00
H623   H     0.83484   0.37897   0.26278   0.00000  Uiso   1.00
H624   H     0.85229   0.18757   0.28587   0.00000  Uiso   1.00
H625   H     0.97743   0.30883   0.36118   0.00000  Uiso   1.00
H626   H     0.76346   0.47672   0.23235   0.00000  Uiso   1.00
H627   H     0.80026   0.07312   0.28104   0.00000  Uiso   1.00
H628   H     0.06416   0.32882   0.43985   0.00000  Uiso   1.00
H629   H     0.76184   0.30336   0.45294   0.00000  Uiso   1.00
H630   H     0.70512   0.39084   0.41644   0.00000  Uiso   1.00
H631   H     0.72257   0.19943   0.43952   0.00000  Uiso   1.00
H632   H     0.84771   0.32070   0.51483   0.00000  Uiso   1.00
H633   H     0.65818   0.48635   0.35706   0.00000  Uiso   1.00
H634   H     0.69498   0.08275   0.40575   0.00000  Uiso   1.00
H635   H     0.95888   0.33846   0.56456   0.00000  Uiso   1.00
O636   O     0.67571   0.53887   0.26806   0.00000  Uiso   1.00
O637   O     0.72400   0.00936   0.33194   0.00000  Uiso   1.00
O638   O     0.07023   0.34484   0.54029   0.00000  Uiso   1.00
N639   N     0.74648   0.46699   0.26672   0.00000  Uiso   1.00
N640   N     0.78088   0.08965   0.31223   0.00000  Uiso   1.00
N641   N     0.02760   0.32869   0.46070   0.00000  Uiso   1.00
N642   N     0.68982   0.47217   0.33382   0.00000  Uiso   1.00
N643   N     0.72422   0.09484   0.37934   0.00000  Uiso   1.00
N644   N     0.97095   0.33388   0.52781   0.00000  Uiso   1.00
C645   C     0.20531   0.35664   0.34064   0.00000  Uiso   1.00
C646   C     0.15655   0.31244   0.33667   0.00000  Uiso   1.00
C647   C     0.11845   0.30683   0.29595   0.00000  Uiso   1.00
C648   C     0.07687   0.26370   0.29961   0.00000  Uiso   1.00
C649   C     0.00168   0.20055   0.28691   0.00000  Uiso   1.00
C650   C     0.26055   0.32191   0.34921   0.00000  Uiso   1.00
C651   C     0.30988   0.32427   0.31903   0.00000  Uiso   1.00
C652   C     0.35585   0.28912   0.33325   0.00000  Uiso   1.00
C653   C     0.44213   0.24071   0.34004   0.00000  Uiso   1.00
C654   C     0.19466   0.38991   0.39013   0.00000  Uiso   1.00
C655   C     0.18861   0.44944   0.39436   0.00000  Uiso   1.00
C656   C     0.17911   0.47154   0.44303   0.00000  Uiso   1.00
C657   C     0.16309   0.52870   0.51335   0.00000  Uiso   1.00
C658   C     0.19922   0.29002   0.41956   0.00000  Uiso   1.00
C659   C     0.15325   0.27625   0.37954   0.00000  Uiso   1.00
C660   C     0.11171   0.23312   0.38326   0.00000  Uiso   1.00
C661   C     0.07355   0.22745   0.34255   0.00000  Uiso   1.00
C662   C     0.25724   0.28573   0.39207   0.00000  Uiso   1.00
C663   C     0.30314   0.25056   0.40635   0.00000  Uiso   1.00
C664   C     0.35253   0.25287   0.37620   0.00000  Uiso   1.00
C665   C     0.19135   0.35372   0.43299   0.00000  Uiso   1.00
C666   C     0.18186   0.37573   0.48167   0.00000  Uiso   1.00
C667   C     0.17580   0.43529   0.48597   0.00000  Uiso   1.00
H668   H     0.20789   0.38481   0.30727   0.00000  Uiso   1.00
H669   H     0.12103   0.33484   0.26278   0.00000  Uiso   1.00
H670   H     0.31243   0.35229   0.28587   0.00000  Uiso   1.00
H671   H     0.19117   0.47743   0.36118   0.00000  Uiso   1.00
H672   H     0.02328   0.26346   0.23235   0.00000  Uiso   1.00
H673   H     0.42688   0.30026   0.28104   0.00000  Uiso   1.00
H674   H     0.17118   0.56416   0.43985   0.00000  Uiso   1.00
H675   H     0.19664   0.26184   0.45294   0.00000  Uiso   1.00
H676   H     0.10916   0.20512   0.41644   0.00000  Uiso   1.00
H677   H     0.30057   0.22257   0.43952   0.00000  Uiso   1.00
H678   H     0.17930   0.34771   0.51483   0.00000  Uiso   1.00
H679   H     0.01365   0.15818   0.35706   0.00000  Uiso   1.00
H680   H     0.41725   0.19498   0.40575   0.00000  Uiso   1.00
H681   H     0.16154   0.45888   0.56456   0.00000  Uiso   1.00
O682   O     0.96113   0.17571   0.26806   0.00000  Uiso   1.00
O683   O     0.49064   0.22400   0.33194   0.00000  Uiso   1.00
O684   O     0.15516   0.57023   0.54029   0.00000  Uiso   1.00
N685   N     0.03301   0.24648   0.26672   0.00000  Uiso   1.00
N686   N     0.41035   0.28088   0.31223   0.00000  Uiso   1.00
N687   N     0.17131   0.52760   0.46070   0.00000  Uiso   1.00
N688   N     0.02783   0.18982   0.33382   0.00000  Uiso   1.00
N689   N     0.40516   0.22422   0.37934   0.00000  Uiso   1.00
N690   N     0.16612   0.47095   0.52781   0.00000  Uiso   1.00
C691   C     0.79469   0.64336   0.34064   0.00000  Uiso   1.00
C692   C     0.84345   0.68756   0.33667   0.00000  Uiso   1.00
C693   C     0.88155   0.69317   0.29595   0.00000  Uiso   1.00
C694   C     0.92313   0.73630   0.29961   0.00000  Uiso   1.00
C695   C     0.99832   0.79945   0.28691   0.00000  Uiso   1.00
C696   C     0.73945   0.67809   0.34921   0.00000  Uiso   1.00
C697   C     0.69012   0.67573   0.31903   0.00000  Uiso   1.00
C698   C     0.64415   0.71088   0.33325   0.00000  Uiso   1.00
C699   C     0.55787   0.75929   0.34004   0.00000  Uiso   1.00
C700   C     0.80534   0.61009   0.39013   0.00000  Uiso   1.00
C701   C     0.81139   0.55056   0.39436   0.00000  Uiso   1.00
C702   C     0.82089   0.52846   0.44303   0.00000  Uiso   1.00
C703   C     0.83691   0.47130   0.51335   0.00000  Uiso   1.00
C704   C     0.80078   0.70998   0.41956   0.00000  Uiso   1.00
C705   C     0.84675   0.72375   0.37954   0.00000  Uiso   1.00
C706   C     0.88829   0.76688   0.38326   0.00000  Uiso   1.00
C707   C     0.92645   0.77255   0.34255   0.00000  Uiso   1.00
C708   C     0.74276   0.71427   0.39207   0.00000  Uiso   1.00
C709   C     0.69686   0.74944   0.40635   0.00000  Uiso   1.00
C710   C     0.64747   0.74713   0.37620   0.00000  Uiso   1.00
C711   C     0.80865   0.64628   0.43299   0.00000  Uiso   1.00
C712   C     0.81814   0.62427   0.48167   0.00000  Uiso   1.00
C713   C     0.82420   0.56471   0.48597   0.00000  Uiso   1.00
H714   H     0.79211   0.61519   0.30727   0.00000  Uiso   1.00
H715   H     0.87897   0.66516   0.26278   0.00000  Uiso   1.00
H716   H     0.68757   0.64771   0.28587   0.00000  Uiso   1.00
H717   H     0.80883   0.52257   0.36118   0.00000  Uiso   1.00
H718   H     0.97672   0.73654   0.23235   0.00000  Uiso   1.00
H719   H     0.57312   0.69974   0.28104   0.00000  Uiso   1.00
H720   H     0.82882   0.43584   0.43985   0.00000  Uiso   1.00
H721   H     0.80336   0.73816   0.45294   0.00000  Uiso   1.00
H722   H     0.89084   0.79488   0.41644   0.00000  Uiso   1.00
H723   H     0.69943   0.77743   0.43952   0.00000  Uiso   1.00
H724   H     0.82070   0.65229   0.51483   0.00000  Uiso   1.00
H725   H     0.98635   0.84182   0.35706   0.00000  Uiso   1.00
H726   H     0.58275   0.80502   0.40575   0.00000  Uiso   1.00
H727   H     0.83846   0.54112   0.56456   0.00000  Uiso   1.00
O728   O     0.03887   0.82429   0.26806   0.00000  Uiso   1.00
O729   O     0.50936   0.77600   0.33194   0.00000  Uiso   1.00
O730   O     0.84484   0.42977   0.54029   0.00000  Uiso   1.00
N731   N     0.96699   0.75352   0.26672   0.00000  Uiso   1.00
N732   N     0.58965   0.71912   0.31223   0.00000  Uiso   1.00
N733   N     0.82869   0.47240   0.46070   0.00000  Uiso   1.00
N734   N     0.97217   0.81018   0.33382   0.00000  Uiso   1.00
N735   N     0.59484   0.77578   0.37934   0.00000  Uiso   1.00
N736   N     0.83388   0.52905   0.52781   0.00000  Uiso   1.00
