data_job_05562
_audit_creation_date              2018-12-19
_audit_creation_method            'Materials Studio'
_symmetry_space_group_name_H-M    'P1'
_symmetry_Int_Tables_number       1
_symmetry_cell_setting            triclinic
loop_
_symmetry_equiv_pos_as_xyz
  x,y,z
_cell_length_a                    52.1596
_cell_length_b                    52.1596
_cell_length_c                    7.1503
_cell_angle_alpha                 90.0000
_cell_angle_beta                  90.0000
_cell_angle_gamma                 90.0000
loop_
_atom_site_label
_atom_site_type_symbol
_atom_site_fract_x
_atom_site_fract_y
_atom_site_fract_z
_atom_site_U_iso_or_equiv
_atom_site_adp_type
_atom_site_occupancy
C1     C     0.07363   0.71840   0.05532   0.00000  Uiso   1.00
C2     C     0.09065   0.69951   0.95016   0.00000  Uiso   1.00
C3     C     0.10488   0.67990   0.03037   0.00000  Uiso   1.00
C4     C     0.11924   0.66469   0.91023   0.00000  Uiso   1.00
C5     C     0.14567   0.63471   0.77636   0.00000  Uiso   1.00
C6     C     0.08332   0.74505   0.00346   0.00000  Uiso   1.00
C7     C     0.09139   0.76374   0.12849   0.00000  Uiso   1.00
C8     C     0.09956   0.78687   0.05321   0.00000  Uiso   1.00
C9     C     0.11459   0.82761   0.00211   0.00000  Uiso   1.00
C10    C     0.04704   0.71604   0.96839   0.00000  Uiso   1.00
C11    C     0.02459   0.71033   0.06393   0.00000  Uiso   1.00
C12    C     0.00222   0.70905   0.95912   0.00000  Uiso   1.00
C13    C     0.96091   0.70473   0.85356   0.00000  Uiso   1.00
C14    C     0.07381   0.72626   0.69933   0.00000  Uiso   1.00
C15    C     0.09075   0.70378   0.75680   0.00000  Uiso   1.00
C16    C     0.10509   0.68859   0.63650   0.00000  Uiso   1.00
C17    C     0.11934   0.66896   0.71652   0.00000  Uiso   1.00
C18    C     0.08342   0.74932   0.81011   0.00000  Uiso   1.00
C19    C     0.09159   0.77244   0.73463   0.00000  Uiso   1.00
C20    C     0.09966   0.79115   0.85950   0.00000  Uiso   1.00
C21    C     0.04714   0.72031   0.77502   0.00000  Uiso   1.00
C22    C     0.02480   0.71903   0.67006   0.00000  Uiso   1.00
C23    C     0.00232   0.71332   0.76541   0.00000  Uiso   1.00
H24    H     0.07355   0.71508   0.20587   0.00000  Uiso   1.00
H25    H     0.10480   0.67660   0.18002   0.00000  Uiso   1.00
H26    H     0.09130   0.76043   0.27812   0.00000  Uiso   1.00
H27    H     0.02452   0.70703   0.21356   0.00000  Uiso   1.00
H28    H     0.13950   0.63583   0.06610   0.00000  Uiso   1.00
H29    H     0.11103   0.81259   0.27296   0.00000  Uiso   1.00
H30    H     0.97021   0.69999   0.13683   0.00000  Uiso   1.00
H31    H     0.07389   0.72959   0.54878   0.00000  Uiso   1.00
H32    H     0.10516   0.69190   0.48687   0.00000  Uiso   1.00
H33    H     0.09166   0.77573   0.58498   0.00000  Uiso   1.00
H34    H     0.02488   0.72233   0.52043   0.00000  Uiso   1.00
H35    H     0.13979   0.64825   0.50352   0.00000  Uiso   1.00
H36    H     0.11132   0.82501   0.71038   0.00000  Uiso   1.00
H37    H     0.97050   0.71241   0.57425   0.00000  Uiso   1.00
O38    O     0.16022   0.61699   0.75595   0.00000  Uiso   1.00
O39    O     0.12286   0.84890   0.02734   0.00000  Uiso   1.00
O40    O     0.93810   0.70117   0.84874   0.00000  Uiso   1.00
N41    N     0.13528   0.64392   0.94219   0.00000  Uiso   1.00
N42    N     0.10866   0.80918   0.13559   0.00000  Uiso   1.00
N43    N     0.97700   0.70392   0.00833   0.00000  Uiso   1.00
N44    N     0.13543   0.65060   0.63947   0.00000  Uiso   1.00
N45    N     0.10882   0.81586   0.83287   0.00000  Uiso   1.00
N46    N     0.97716   0.71060   0.70561   0.00000  Uiso   1.00
C47    C     0.57363   0.21840   0.55532   0.00000  Uiso   1.00
C48    C     0.59065   0.19951   0.45016   0.00000  Uiso   1.00
C49    C     0.60488   0.17990   0.53037   0.00000  Uiso   1.00
C50    C     0.61924   0.16469   0.41023   0.00000  Uiso   1.00
C51    C     0.64567   0.13471   0.27636   0.00000  Uiso   1.00
C52    C     0.58332   0.24505   0.50346   0.00000  Uiso   1.00
C53    C     0.59139   0.26374   0.62849   0.00000  Uiso   1.00
C54    C     0.59956   0.28687   0.55321   0.00000  Uiso   1.00
C55    C     0.61459   0.32761   0.50211   0.00000  Uiso   1.00
C56    C     0.54704   0.21604   0.46839   0.00000  Uiso   1.00
C57    C     0.52459   0.21033   0.56393   0.00000  Uiso   1.00
C58    C     0.50222   0.20905   0.45912   0.00000  Uiso   1.00
C59    C     0.46091   0.20473   0.35356   0.00000  Uiso   1.00
C60    C     0.57381   0.22626   0.19933   0.00000  Uiso   1.00
C61    C     0.59075   0.20378   0.25680   0.00000  Uiso   1.00
C62    C     0.60509   0.18859   0.13650   0.00000  Uiso   1.00
C63    C     0.61934   0.16896   0.21652   0.00000  Uiso   1.00
C64    C     0.58342   0.24932   0.31011   0.00000  Uiso   1.00
C65    C     0.59159   0.27244   0.23463   0.00000  Uiso   1.00
C66    C     0.59966   0.29115   0.35950   0.00000  Uiso   1.00
C67    C     0.54714   0.22031   0.27502   0.00000  Uiso   1.00
C68    C     0.52480   0.21903   0.17006   0.00000  Uiso   1.00
C69    C     0.50232   0.21332   0.26541   0.00000  Uiso   1.00
H70    H     0.57355   0.21508   0.70587   0.00000  Uiso   1.00
H71    H     0.60480   0.17660   0.68002   0.00000  Uiso   1.00
H72    H     0.59130   0.26043   0.77812   0.00000  Uiso   1.00
H73    H     0.52452   0.20703   0.71356   0.00000  Uiso   1.00
H74    H     0.63950   0.13583   0.56610   0.00000  Uiso   1.00
H75    H     0.61103   0.31259   0.77296   0.00000  Uiso   1.00
H76    H     0.47021   0.19999   0.63683   0.00000  Uiso   1.00
H77    H     0.57389   0.22959   0.04878   0.00000  Uiso   1.00
H78    H     0.60516   0.19190   0.98687   0.00000  Uiso   1.00
H79    H     0.59166   0.27573   0.08498   0.00000  Uiso   1.00
H80    H     0.52488   0.22233   0.02043   0.00000  Uiso   1.00
H81    H     0.63979   0.14825   0.00352   0.00000  Uiso   1.00
H82    H     0.61132   0.32501   0.21038   0.00000  Uiso   1.00
H83    H     0.47050   0.21241   0.07425   0.00000  Uiso   1.00
O84    O     0.66022   0.11699   0.25595   0.00000  Uiso   1.00
O85    O     0.62286   0.34890   0.52734   0.00000  Uiso   1.00
O86    O     0.43810   0.20117   0.34874   0.00000  Uiso   1.00
N87    N     0.63528   0.14392   0.44219   0.00000  Uiso   1.00
N88    N     0.60866   0.30918   0.63559   0.00000  Uiso   1.00
N89    N     0.47700   0.20392   0.50833   0.00000  Uiso   1.00
N90    N     0.63543   0.15060   0.13947   0.00000  Uiso   1.00
N91    N     0.60882   0.31586   0.33287   0.00000  Uiso   1.00
N92    N     0.47716   0.21060   0.20561   0.00000  Uiso   1.00
C93    C     0.42637   0.78160   0.55532   0.00000  Uiso   1.00
C94    C     0.40935   0.80049   0.45016   0.00000  Uiso   1.00
C95    C     0.39512   0.82010   0.53037   0.00000  Uiso   1.00
C96    C     0.38076   0.83531   0.41023   0.00000  Uiso   1.00
C97    C     0.35433   0.86529   0.27636   0.00000  Uiso   1.00
C98    C     0.41668   0.75495   0.50346   0.00000  Uiso   1.00
C99    C     0.40861   0.73626   0.62849   0.00000  Uiso   1.00
C100   C     0.40044   0.71313   0.55321   0.00000  Uiso   1.00
C101   C     0.38541   0.67239   0.50211   0.00000  Uiso   1.00
C102   C     0.45296   0.78396   0.46839   0.00000  Uiso   1.00
C103   C     0.47541   0.78967   0.56393   0.00000  Uiso   1.00
C104   C     0.49778   0.79095   0.45912   0.00000  Uiso   1.00
C105   C     0.53909   0.79527   0.35356   0.00000  Uiso   1.00
C106   C     0.42619   0.77374   0.19933   0.00000  Uiso   1.00
C107   C     0.40925   0.79622   0.25680   0.00000  Uiso   1.00
C108   C     0.39491   0.81141   0.13650   0.00000  Uiso   1.00
C109   C     0.38066   0.83104   0.21652   0.00000  Uiso   1.00
C110   C     0.41658   0.75068   0.31011   0.00000  Uiso   1.00
C111   C     0.40841   0.72756   0.23463   0.00000  Uiso   1.00
C112   C     0.40034   0.70885   0.35950   0.00000  Uiso   1.00
C113   C     0.45286   0.77969   0.27502   0.00000  Uiso   1.00
C114   C     0.47520   0.78097   0.17006   0.00000  Uiso   1.00
C115   C     0.49768   0.78668   0.26541   0.00000  Uiso   1.00
H116   H     0.42645   0.78492   0.70587   0.00000  Uiso   1.00
H117   H     0.39520   0.82340   0.68002   0.00000  Uiso   1.00
H118   H     0.40870   0.73957   0.77812   0.00000  Uiso   1.00
H119   H     0.47548   0.79297   0.71356   0.00000  Uiso   1.00
H120   H     0.36050   0.86417   0.56610   0.00000  Uiso   1.00
H121   H     0.38897   0.68741   0.77296   0.00000  Uiso   1.00
H122   H     0.52979   0.80001   0.63683   0.00000  Uiso   1.00
H123   H     0.42611   0.77041   0.04878   0.00000  Uiso   1.00
H124   H     0.39484   0.80810   0.98687   0.00000  Uiso   1.00
H125   H     0.40834   0.72427   0.08498   0.00000  Uiso   1.00
H126   H     0.47512   0.77767   0.02043   0.00000  Uiso   1.00
H127   H     0.36021   0.85175   0.00352   0.00000  Uiso   1.00
H128   H     0.38868   0.67499   0.21038   0.00000  Uiso   1.00
H129   H     0.52950   0.78759   0.07425   0.00000  Uiso   1.00
O130   O     0.33978   0.88301   0.25595   0.00000  Uiso   1.00
O131   O     0.37714   0.65110   0.52734   0.00000  Uiso   1.00
O132   O     0.56190   0.79883   0.34874   0.00000  Uiso   1.00
N133   N     0.36472   0.85608   0.44219   0.00000  Uiso   1.00
N134   N     0.39134   0.69082   0.63559   0.00000  Uiso   1.00
N135   N     0.52300   0.79608   0.50833   0.00000  Uiso   1.00
N136   N     0.36457   0.84940   0.13947   0.00000  Uiso   1.00
N137   N     0.39118   0.68414   0.33287   0.00000  Uiso   1.00
N138   N     0.52284   0.78940   0.20561   0.00000  Uiso   1.00
C139   C     0.92637   0.28160   0.05532   0.00000  Uiso   1.00
C140   C     0.90935   0.30049   0.95016   0.00000  Uiso   1.00
C141   C     0.89512   0.32010   0.03037   0.00000  Uiso   1.00
C142   C     0.88076   0.33531   0.91023   0.00000  Uiso   1.00
C143   C     0.85433   0.36529   0.77636   0.00000  Uiso   1.00
C144   C     0.91668   0.25495   0.00346   0.00000  Uiso   1.00
C145   C     0.90861   0.23626   0.12849   0.00000  Uiso   1.00
C146   C     0.90044   0.21313   0.05321   0.00000  Uiso   1.00
C147   C     0.88541   0.17239   0.00211   0.00000  Uiso   1.00
C148   C     0.95296   0.28396   0.96839   0.00000  Uiso   1.00
C149   C     0.97541   0.28967   0.06393   0.00000  Uiso   1.00
C150   C     0.99778   0.29095   0.95912   0.00000  Uiso   1.00
C151   C     0.03909   0.29527   0.85356   0.00000  Uiso   1.00
C152   C     0.92619   0.27374   0.69933   0.00000  Uiso   1.00
C153   C     0.90925   0.29622   0.75680   0.00000  Uiso   1.00
C154   C     0.89491   0.31141   0.63650   0.00000  Uiso   1.00
C155   C     0.88066   0.33104   0.71652   0.00000  Uiso   1.00
C156   C     0.91658   0.25068   0.81011   0.00000  Uiso   1.00
C157   C     0.90841   0.22756   0.73463   0.00000  Uiso   1.00
C158   C     0.90034   0.20885   0.85950   0.00000  Uiso   1.00
C159   C     0.95286   0.27969   0.77502   0.00000  Uiso   1.00
C160   C     0.97520   0.28097   0.67006   0.00000  Uiso   1.00
C161   C     0.99768   0.28668   0.76541   0.00000  Uiso   1.00
H162   H     0.92645   0.28492   0.20587   0.00000  Uiso   1.00
H163   H     0.89520   0.32340   0.18002   0.00000  Uiso   1.00
H164   H     0.90870   0.23957   0.27812   0.00000  Uiso   1.00
H165   H     0.97548   0.29297   0.21356   0.00000  Uiso   1.00
H166   H     0.86050   0.36417   0.06610   0.00000  Uiso   1.00
H167   H     0.88897   0.18741   0.27296   0.00000  Uiso   1.00
H168   H     0.02979   0.30001   0.13683   0.00000  Uiso   1.00
H169   H     0.92611   0.27041   0.54878   0.00000  Uiso   1.00
H170   H     0.89484   0.30810   0.48687   0.00000  Uiso   1.00
H171   H     0.90834   0.22427   0.58498   0.00000  Uiso   1.00
H172   H     0.97512   0.27767   0.52043   0.00000  Uiso   1.00
H173   H     0.86021   0.35175   0.50352   0.00000  Uiso   1.00
H174   H     0.88868   0.17499   0.71038   0.00000  Uiso   1.00
H175   H     0.02950   0.28759   0.57425   0.00000  Uiso   1.00
O176   O     0.83978   0.38301   0.75595   0.00000  Uiso   1.00
O177   O     0.87714   0.15110   0.02734   0.00000  Uiso   1.00
O178   O     0.06190   0.29883   0.84874   0.00000  Uiso   1.00
N179   N     0.86472   0.35608   0.94219   0.00000  Uiso   1.00
N180   N     0.89134   0.19082   0.13559   0.00000  Uiso   1.00
N181   N     0.02300   0.29608   0.00833   0.00000  Uiso   1.00
N182   N     0.86457   0.34940   0.63947   0.00000  Uiso   1.00
N183   N     0.89118   0.18414   0.83287   0.00000  Uiso   1.00
N184   N     0.02284   0.28940   0.70561   0.00000  Uiso   1.00
C185   C     0.28160   0.57363   0.30532   0.00000  Uiso   1.00
C186   C     0.30049   0.59065   0.20016   0.00000  Uiso   1.00
C187   C     0.32010   0.60488   0.28037   0.00000  Uiso   1.00
C188   C     0.33531   0.61924   0.16023   0.00000  Uiso   1.00
C189   C     0.36529   0.64567   0.02636   0.00000  Uiso   1.00
C190   C     0.25495   0.58332   0.25346   0.00000  Uiso   1.00
C191   C     0.23626   0.59139   0.37849   0.00000  Uiso   1.00
C192   C     0.21313   0.59956   0.30321   0.00000  Uiso   1.00
C193   C     0.17239   0.61459   0.25211   0.00000  Uiso   1.00
C194   C     0.28396   0.54704   0.21839   0.00000  Uiso   1.00
C195   C     0.28967   0.52459   0.31393   0.00000  Uiso   1.00
C196   C     0.29095   0.50222   0.20912   0.00000  Uiso   1.00
C197   C     0.29527   0.46091   0.10356   0.00000  Uiso   1.00
C198   C     0.27374   0.57381   0.94933   0.00000  Uiso   1.00
C199   C     0.29622   0.59075   0.00680   0.00000  Uiso   1.00
C200   C     0.31141   0.60509   0.88650   0.00000  Uiso   1.00
C201   C     0.33104   0.61934   0.96652   0.00000  Uiso   1.00
C202   C     0.25068   0.58342   0.06011   0.00000  Uiso   1.00
C203   C     0.22756   0.59159   0.98463   0.00000  Uiso   1.00
C204   C     0.20885   0.59966   0.10950   0.00000  Uiso   1.00
C205   C     0.27969   0.54714   0.02502   0.00000  Uiso   1.00
C206   C     0.28097   0.52480   0.92006   0.00000  Uiso   1.00
C207   C     0.28668   0.50232   0.01541   0.00000  Uiso   1.00
H208   H     0.28492   0.57355   0.45587   0.00000  Uiso   1.00
H209   H     0.32340   0.60480   0.43002   0.00000  Uiso   1.00
H210   H     0.23957   0.59130   0.52812   0.00000  Uiso   1.00
H211   H     0.29297   0.52452   0.46356   0.00000  Uiso   1.00
H212   H     0.36417   0.63950   0.31610   0.00000  Uiso   1.00
H213   H     0.18741   0.61103   0.52296   0.00000  Uiso   1.00
H214   H     0.30001   0.47021   0.38683   0.00000  Uiso   1.00
H215   H     0.27041   0.57389   0.79878   0.00000  Uiso   1.00
H216   H     0.30810   0.60516   0.73687   0.00000  Uiso   1.00
H217   H     0.22427   0.59166   0.83498   0.00000  Uiso   1.00
H218   H     0.27767   0.52488   0.77043   0.00000  Uiso   1.00
H219   H     0.35175   0.63979   0.75352   0.00000  Uiso   1.00
H220   H     0.17499   0.61132   0.96038   0.00000  Uiso   1.00
H221   H     0.28759   0.47050   0.82425   0.00000  Uiso   1.00
O222   O     0.38301   0.66022   0.00595   0.00000  Uiso   1.00
O223   O     0.15110   0.62286   0.27734   0.00000  Uiso   1.00
O224   O     0.29883   0.43810   0.09874   0.00000  Uiso   1.00
N225   N     0.35608   0.63528   0.19219   0.00000  Uiso   1.00
N226   N     0.19082   0.60866   0.38559   0.00000  Uiso   1.00
N227   N     0.29608   0.47700   0.25833   0.00000  Uiso   1.00
N228   N     0.34940   0.63543   0.88947   0.00000  Uiso   1.00
N229   N     0.18414   0.60882   0.08287   0.00000  Uiso   1.00
N230   N     0.28940   0.47716   0.95561   0.00000  Uiso   1.00
C231   C     0.78160   0.07363   0.80532   0.00000  Uiso   1.00
C232   C     0.80049   0.09065   0.70016   0.00000  Uiso   1.00
C233   C     0.82010   0.10488   0.78037   0.00000  Uiso   1.00
C234   C     0.83531   0.11924   0.66023   0.00000  Uiso   1.00
C235   C     0.86529   0.14567   0.52636   0.00000  Uiso   1.00
C236   C     0.75495   0.08332   0.75346   0.00000  Uiso   1.00
C237   C     0.73626   0.09139   0.87849   0.00000  Uiso   1.00
C238   C     0.71313   0.09956   0.80321   0.00000  Uiso   1.00
C239   C     0.67239   0.11459   0.75211   0.00000  Uiso   1.00
C240   C     0.78396   0.04704   0.71839   0.00000  Uiso   1.00
C241   C     0.78967   0.02459   0.81393   0.00000  Uiso   1.00
C242   C     0.79095   0.00222   0.70912   0.00000  Uiso   1.00
C243   C     0.79527   0.96091   0.60356   0.00000  Uiso   1.00
C244   C     0.77374   0.07381   0.44933   0.00000  Uiso   1.00
C245   C     0.79622   0.09075   0.50680   0.00000  Uiso   1.00
C246   C     0.81141   0.10509   0.38650   0.00000  Uiso   1.00
C247   C     0.83104   0.11934   0.46652   0.00000  Uiso   1.00
C248   C     0.75068   0.08342   0.56011   0.00000  Uiso   1.00
C249   C     0.72756   0.09159   0.48463   0.00000  Uiso   1.00
C250   C     0.70885   0.09966   0.60950   0.00000  Uiso   1.00
C251   C     0.77969   0.04714   0.52502   0.00000  Uiso   1.00
C252   C     0.78097   0.02480   0.42006   0.00000  Uiso   1.00
C253   C     0.78668   0.00232   0.51541   0.00000  Uiso   1.00
H254   H     0.78492   0.07355   0.95587   0.00000  Uiso   1.00
H255   H     0.82340   0.10480   0.93002   0.00000  Uiso   1.00
H256   H     0.73957   0.09130   0.02812   0.00000  Uiso   1.00
H257   H     0.79297   0.02452   0.96356   0.00000  Uiso   1.00
H258   H     0.86417   0.13950   0.81610   0.00000  Uiso   1.00
H259   H     0.68741   0.11103   0.02296   0.00000  Uiso   1.00
H260   H     0.80001   0.97021   0.88683   0.00000  Uiso   1.00
H261   H     0.77041   0.07389   0.29878   0.00000  Uiso   1.00
H262   H     0.80810   0.10516   0.23687   0.00000  Uiso   1.00
H263   H     0.72427   0.09166   0.33498   0.00000  Uiso   1.00
H264   H     0.77767   0.02488   0.27043   0.00000  Uiso   1.00
H265   H     0.85175   0.13979   0.25352   0.00000  Uiso   1.00
H266   H     0.67499   0.11132   0.46038   0.00000  Uiso   1.00
H267   H     0.78759   0.97050   0.32425   0.00000  Uiso   1.00
O268   O     0.88301   0.16022   0.50595   0.00000  Uiso   1.00
O269   O     0.65110   0.12286   0.77734   0.00000  Uiso   1.00
O270   O     0.79883   0.93810   0.59874   0.00000  Uiso   1.00
N271   N     0.85608   0.13528   0.69219   0.00000  Uiso   1.00
N272   N     0.69082   0.10866   0.88559   0.00000  Uiso   1.00
N273   N     0.79608   0.97700   0.75833   0.00000  Uiso   1.00
N274   N     0.84940   0.13543   0.38947   0.00000  Uiso   1.00
N275   N     0.68414   0.10882   0.58287   0.00000  Uiso   1.00
N276   N     0.78940   0.97716   0.45561   0.00000  Uiso   1.00
C277   C     0.21840   0.92637   0.80532   0.00000  Uiso   1.00
C278   C     0.19951   0.90935   0.70016   0.00000  Uiso   1.00
C279   C     0.17990   0.89512   0.78037   0.00000  Uiso   1.00
C280   C     0.16469   0.88076   0.66023   0.00000  Uiso   1.00
C281   C     0.13471   0.85433   0.52636   0.00000  Uiso   1.00
C282   C     0.24505   0.91668   0.75346   0.00000  Uiso   1.00
C283   C     0.26374   0.90861   0.87849   0.00000  Uiso   1.00
C284   C     0.28687   0.90044   0.80321   0.00000  Uiso   1.00
C285   C     0.32761   0.88541   0.75211   0.00000  Uiso   1.00
C286   C     0.21604   0.95296   0.71839   0.00000  Uiso   1.00
C287   C     0.21033   0.97541   0.81393   0.00000  Uiso   1.00
C288   C     0.20905   0.99778   0.70912   0.00000  Uiso   1.00
C289   C     0.20473   0.03909   0.60356   0.00000  Uiso   1.00
C290   C     0.22626   0.92619   0.44933   0.00000  Uiso   1.00
C291   C     0.20378   0.90925   0.50680   0.00000  Uiso   1.00
C292   C     0.18859   0.89491   0.38650   0.00000  Uiso   1.00
C293   C     0.16896   0.88066   0.46652   0.00000  Uiso   1.00
C294   C     0.24932   0.91658   0.56011   0.00000  Uiso   1.00
C295   C     0.27244   0.90841   0.48463   0.00000  Uiso   1.00
C296   C     0.29115   0.90034   0.60950   0.00000  Uiso   1.00
C297   C     0.22031   0.95286   0.52502   0.00000  Uiso   1.00
C298   C     0.21903   0.97520   0.42006   0.00000  Uiso   1.00
C299   C     0.21332   0.99768   0.51541   0.00000  Uiso   1.00
H300   H     0.21508   0.92645   0.95587   0.00000  Uiso   1.00
H301   H     0.17660   0.89520   0.93002   0.00000  Uiso   1.00
H302   H     0.26043   0.90870   0.02812   0.00000  Uiso   1.00
H303   H     0.20703   0.97548   0.96356   0.00000  Uiso   1.00
H304   H     0.13583   0.86050   0.81610   0.00000  Uiso   1.00
H305   H     0.31259   0.88897   0.02296   0.00000  Uiso   1.00
H306   H     0.19999   0.02979   0.88683   0.00000  Uiso   1.00
H307   H     0.22959   0.92611   0.29878   0.00000  Uiso   1.00
H308   H     0.19190   0.89484   0.23687   0.00000  Uiso   1.00
H309   H     0.27573   0.90834   0.33498   0.00000  Uiso   1.00
H310   H     0.22233   0.97512   0.27043   0.00000  Uiso   1.00
H311   H     0.14825   0.86021   0.25352   0.00000  Uiso   1.00
H312   H     0.32501   0.88868   0.46038   0.00000  Uiso   1.00
H313   H     0.21241   0.02950   0.32425   0.00000  Uiso   1.00
O314   O     0.11699   0.83978   0.50595   0.00000  Uiso   1.00
O315   O     0.34890   0.87714   0.77734   0.00000  Uiso   1.00
O316   O     0.20117   0.06190   0.59874   0.00000  Uiso   1.00
N317   N     0.14392   0.86472   0.69219   0.00000  Uiso   1.00
N318   N     0.30918   0.89134   0.88559   0.00000  Uiso   1.00
N319   N     0.20392   0.02300   0.75833   0.00000  Uiso   1.00
N320   N     0.15060   0.86457   0.38947   0.00000  Uiso   1.00
N321   N     0.31586   0.89118   0.58287   0.00000  Uiso   1.00
N322   N     0.21060   0.02284   0.45561   0.00000  Uiso   1.00
C323   C     0.71840   0.42637   0.30532   0.00000  Uiso   1.00
C324   C     0.69951   0.40935   0.20016   0.00000  Uiso   1.00
C325   C     0.67990   0.39512   0.28037   0.00000  Uiso   1.00
C326   C     0.66469   0.38076   0.16023   0.00000  Uiso   1.00
C327   C     0.63471   0.35433   0.02636   0.00000  Uiso   1.00
C328   C     0.74505   0.41668   0.25346   0.00000  Uiso   1.00
C329   C     0.76374   0.40861   0.37849   0.00000  Uiso   1.00
C330   C     0.78687   0.40044   0.30321   0.00000  Uiso   1.00
C331   C     0.82761   0.38541   0.25211   0.00000  Uiso   1.00
C332   C     0.71604   0.45296   0.21839   0.00000  Uiso   1.00
C333   C     0.71033   0.47541   0.31393   0.00000  Uiso   1.00
C334   C     0.70905   0.49778   0.20912   0.00000  Uiso   1.00
C335   C     0.70473   0.53909   0.10356   0.00000  Uiso   1.00
C336   C     0.72626   0.42619   0.94933   0.00000  Uiso   1.00
C337   C     0.70378   0.40925   0.00680   0.00000  Uiso   1.00
C338   C     0.68859   0.39491   0.88650   0.00000  Uiso   1.00
C339   C     0.66896   0.38066   0.96652   0.00000  Uiso   1.00
C340   C     0.74932   0.41658   0.06011   0.00000  Uiso   1.00
C341   C     0.77244   0.40841   0.98463   0.00000  Uiso   1.00
C342   C     0.79115   0.40034   0.10950   0.00000  Uiso   1.00
C343   C     0.72031   0.45286   0.02502   0.00000  Uiso   1.00
C344   C     0.71903   0.47520   0.92006   0.00000  Uiso   1.00
C345   C     0.71332   0.49768   0.01541   0.00000  Uiso   1.00
H346   H     0.71508   0.42645   0.45587   0.00000  Uiso   1.00
H347   H     0.67660   0.39520   0.43002   0.00000  Uiso   1.00
H348   H     0.76043   0.40870   0.52812   0.00000  Uiso   1.00
H349   H     0.70703   0.47548   0.46356   0.00000  Uiso   1.00
H350   H     0.63583   0.36050   0.31610   0.00000  Uiso   1.00
H351   H     0.81259   0.38897   0.52296   0.00000  Uiso   1.00
H352   H     0.69999   0.52979   0.38683   0.00000  Uiso   1.00
H353   H     0.72959   0.42611   0.79878   0.00000  Uiso   1.00
H354   H     0.69190   0.39484   0.73687   0.00000  Uiso   1.00
H355   H     0.77573   0.40834   0.83498   0.00000  Uiso   1.00
H356   H     0.72233   0.47512   0.77043   0.00000  Uiso   1.00
H357   H     0.64825   0.36021   0.75352   0.00000  Uiso   1.00
H358   H     0.82501   0.38868   0.96038   0.00000  Uiso   1.00
H359   H     0.71241   0.52950   0.82425   0.00000  Uiso   1.00
O360   O     0.61699   0.33978   0.00595   0.00000  Uiso   1.00
O361   O     0.84890   0.37714   0.27734   0.00000  Uiso   1.00
O362   O     0.70117   0.56190   0.09874   0.00000  Uiso   1.00
N363   N     0.64392   0.36472   0.19219   0.00000  Uiso   1.00
N364   N     0.80918   0.39134   0.38559   0.00000  Uiso   1.00
N365   N     0.70392   0.52300   0.25833   0.00000  Uiso   1.00
N366   N     0.65060   0.36457   0.88947   0.00000  Uiso   1.00
N367   N     0.81586   0.39118   0.08287   0.00000  Uiso   1.00
N368   N     0.71060   0.52284   0.95561   0.00000  Uiso   1.00
C369   C     0.92637   0.78160   0.19468   0.00000  Uiso   1.00
C370   C     0.90935   0.80049   0.29984   0.00000  Uiso   1.00
C371   C     0.89512   0.82010   0.21963   0.00000  Uiso   1.00
C372   C     0.88076   0.83531   0.33977   0.00000  Uiso   1.00
C373   C     0.85433   0.86529   0.47364   0.00000  Uiso   1.00
C374   C     0.91668   0.75495   0.24654   0.00000  Uiso   1.00
C375   C     0.90861   0.73626   0.12151   0.00000  Uiso   1.00
C376   C     0.90044   0.71313   0.19679   0.00000  Uiso   1.00
C377   C     0.88541   0.67239   0.24789   0.00000  Uiso   1.00
C378   C     0.95296   0.78396   0.28161   0.00000  Uiso   1.00
C379   C     0.97541   0.78967   0.18607   0.00000  Uiso   1.00
C380   C     0.99778   0.79095   0.29088   0.00000  Uiso   1.00
C381   C     0.03909   0.79527   0.39644   0.00000  Uiso   1.00
C382   C     0.92619   0.77374   0.55067   0.00000  Uiso   1.00
C383   C     0.90925   0.79622   0.49320   0.00000  Uiso   1.00
C384   C     0.89491   0.81141   0.61350   0.00000  Uiso   1.00
C385   C     0.88066   0.83104   0.53348   0.00000  Uiso   1.00
C386   C     0.91658   0.75068   0.43989   0.00000  Uiso   1.00
C387   C     0.90841   0.72756   0.51537   0.00000  Uiso   1.00
C388   C     0.90034   0.70885   0.39050   0.00000  Uiso   1.00
C389   C     0.95286   0.77969   0.47498   0.00000  Uiso   1.00
C390   C     0.97520   0.78097   0.57994   0.00000  Uiso   1.00
C391   C     0.99768   0.78668   0.48459   0.00000  Uiso   1.00
H392   H     0.92645   0.78492   0.04413   0.00000  Uiso   1.00
H393   H     0.89520   0.82340   0.06998   0.00000  Uiso   1.00
H394   H     0.90870   0.73957   0.97188   0.00000  Uiso   1.00
H395   H     0.97548   0.79297   0.03644   0.00000  Uiso   1.00
H396   H     0.86050   0.86417   0.18390   0.00000  Uiso   1.00
H397   H     0.88897   0.68741   0.97704   0.00000  Uiso   1.00
H398   H     0.02979   0.80001   0.11317   0.00000  Uiso   1.00
H399   H     0.92611   0.77041   0.70122   0.00000  Uiso   1.00
H400   H     0.89484   0.80810   0.76313   0.00000  Uiso   1.00
H401   H     0.90834   0.72427   0.66502   0.00000  Uiso   1.00
H402   H     0.97512   0.77767   0.72957   0.00000  Uiso   1.00
H403   H     0.86021   0.85175   0.74648   0.00000  Uiso   1.00
H404   H     0.88868   0.67499   0.53962   0.00000  Uiso   1.00
H405   H     0.02950   0.78759   0.67575   0.00000  Uiso   1.00
O406   O     0.83978   0.88301   0.49405   0.00000  Uiso   1.00
O407   O     0.87714   0.65110   0.22266   0.00000  Uiso   1.00
O408   O     0.06190   0.79883   0.40126   0.00000  Uiso   1.00
N409   N     0.86472   0.85608   0.30781   0.00000  Uiso   1.00
N410   N     0.89134   0.69082   0.11441   0.00000  Uiso   1.00
N411   N     0.02300   0.79608   0.24167   0.00000  Uiso   1.00
N412   N     0.86457   0.84940   0.61053   0.00000  Uiso   1.00
N413   N     0.89118   0.68414   0.41713   0.00000  Uiso   1.00
N414   N     0.02284   0.78940   0.54439   0.00000  Uiso   1.00
C415   C     0.42637   0.28160   0.69468   0.00000  Uiso   1.00
C416   C     0.40935   0.30049   0.79984   0.00000  Uiso   1.00
C417   C     0.39512   0.32010   0.71963   0.00000  Uiso   1.00
C418   C     0.38076   0.33531   0.83977   0.00000  Uiso   1.00
C419   C     0.35433   0.36529   0.97364   0.00000  Uiso   1.00
C420   C     0.41668   0.25495   0.74654   0.00000  Uiso   1.00
C421   C     0.40861   0.23626   0.62151   0.00000  Uiso   1.00
C422   C     0.40044   0.21313   0.69679   0.00000  Uiso   1.00
C423   C     0.38541   0.17239   0.74789   0.00000  Uiso   1.00
C424   C     0.45296   0.28396   0.78161   0.00000  Uiso   1.00
C425   C     0.47541   0.28967   0.68607   0.00000  Uiso   1.00
C426   C     0.49778   0.29095   0.79088   0.00000  Uiso   1.00
C427   C     0.53909   0.29527   0.89644   0.00000  Uiso   1.00
C428   C     0.42619   0.27374   0.05067   0.00000  Uiso   1.00
C429   C     0.40925   0.29622   0.99320   0.00000  Uiso   1.00
C430   C     0.39491   0.31141   0.11350   0.00000  Uiso   1.00
C431   C     0.38066   0.33104   0.03348   0.00000  Uiso   1.00
C432   C     0.41658   0.25068   0.93989   0.00000  Uiso   1.00
C433   C     0.40841   0.22756   0.01537   0.00000  Uiso   1.00
C434   C     0.40034   0.20885   0.89050   0.00000  Uiso   1.00
C435   C     0.45286   0.27969   0.97498   0.00000  Uiso   1.00
C436   C     0.47520   0.28097   0.07994   0.00000  Uiso   1.00
C437   C     0.49768   0.28668   0.98459   0.00000  Uiso   1.00
H438   H     0.42645   0.28492   0.54413   0.00000  Uiso   1.00
H439   H     0.39520   0.32340   0.56998   0.00000  Uiso   1.00
H440   H     0.40870   0.23957   0.47188   0.00000  Uiso   1.00
H441   H     0.47548   0.29297   0.53644   0.00000  Uiso   1.00
H442   H     0.36050   0.36417   0.68390   0.00000  Uiso   1.00
H443   H     0.38897   0.18741   0.47704   0.00000  Uiso   1.00
H444   H     0.52979   0.30001   0.61317   0.00000  Uiso   1.00
H445   H     0.42611   0.27041   0.20122   0.00000  Uiso   1.00
H446   H     0.39484   0.30810   0.26313   0.00000  Uiso   1.00
H447   H     0.40834   0.22427   0.16502   0.00000  Uiso   1.00
H448   H     0.47512   0.27767   0.22957   0.00000  Uiso   1.00
H449   H     0.36021   0.35175   0.24648   0.00000  Uiso   1.00
H450   H     0.38868   0.17499   0.03962   0.00000  Uiso   1.00
H451   H     0.52950   0.28759   0.17575   0.00000  Uiso   1.00
O452   O     0.33978   0.38301   0.99405   0.00000  Uiso   1.00
O453   O     0.37714   0.15110   0.72266   0.00000  Uiso   1.00
O454   O     0.56190   0.29883   0.90126   0.00000  Uiso   1.00
N455   N     0.36472   0.35608   0.80781   0.00000  Uiso   1.00
N456   N     0.39134   0.19082   0.61441   0.00000  Uiso   1.00
N457   N     0.52300   0.29608   0.74167   0.00000  Uiso   1.00
N458   N     0.36457   0.34940   0.11053   0.00000  Uiso   1.00
N459   N     0.39118   0.18414   0.91713   0.00000  Uiso   1.00
N460   N     0.52284   0.28940   0.04439   0.00000  Uiso   1.00
C461   C     0.57363   0.71840   0.69468   0.00000  Uiso   1.00
C462   C     0.59065   0.69951   0.79984   0.00000  Uiso   1.00
C463   C     0.60488   0.67990   0.71963   0.00000  Uiso   1.00
C464   C     0.61924   0.66469   0.83977   0.00000  Uiso   1.00
C465   C     0.64567   0.63471   0.97364   0.00000  Uiso   1.00
C466   C     0.58332   0.74505   0.74654   0.00000  Uiso   1.00
C467   C     0.59139   0.76374   0.62151   0.00000  Uiso   1.00
C468   C     0.59956   0.78687   0.69679   0.00000  Uiso   1.00
C469   C     0.61459   0.82761   0.74789   0.00000  Uiso   1.00
C470   C     0.54704   0.71604   0.78161   0.00000  Uiso   1.00
C471   C     0.52459   0.71033   0.68607   0.00000  Uiso   1.00
C472   C     0.50222   0.70905   0.79088   0.00000  Uiso   1.00
C473   C     0.46091   0.70473   0.89644   0.00000  Uiso   1.00
C474   C     0.57381   0.72626   0.05067   0.00000  Uiso   1.00
C475   C     0.59075   0.70378   0.99320   0.00000  Uiso   1.00
C476   C     0.60509   0.68859   0.11350   0.00000  Uiso   1.00
C477   C     0.61934   0.66896   0.03348   0.00000  Uiso   1.00
C478   C     0.58342   0.74932   0.93989   0.00000  Uiso   1.00
C479   C     0.59159   0.77244   0.01537   0.00000  Uiso   1.00
C480   C     0.59966   0.79115   0.89050   0.00000  Uiso   1.00
C481   C     0.54714   0.72031   0.97498   0.00000  Uiso   1.00
C482   C     0.52480   0.71903   0.07994   0.00000  Uiso   1.00
C483   C     0.50232   0.71332   0.98459   0.00000  Uiso   1.00
H484   H     0.57355   0.71508   0.54413   0.00000  Uiso   1.00
H485   H     0.60480   0.67660   0.56998   0.00000  Uiso   1.00
H486   H     0.59130   0.76043   0.47188   0.00000  Uiso   1.00
H487   H     0.52452   0.70703   0.53644   0.00000  Uiso   1.00
H488   H     0.63950   0.63583   0.68390   0.00000  Uiso   1.00
H489   H     0.61103   0.81259   0.47704   0.00000  Uiso   1.00
H490   H     0.47021   0.69999   0.61317   0.00000  Uiso   1.00
H491   H     0.57389   0.72959   0.20122   0.00000  Uiso   1.00
H492   H     0.60516   0.69190   0.26313   0.00000  Uiso   1.00
H493   H     0.59166   0.77573   0.16502   0.00000  Uiso   1.00
H494   H     0.52488   0.72233   0.22957   0.00000  Uiso   1.00
H495   H     0.63979   0.64825   0.24648   0.00000  Uiso   1.00
H496   H     0.61132   0.82501   0.03962   0.00000  Uiso   1.00
H497   H     0.47050   0.71241   0.17575   0.00000  Uiso   1.00
O498   O     0.66022   0.61699   0.99405   0.00000  Uiso   1.00
O499   O     0.62286   0.84890   0.72266   0.00000  Uiso   1.00
O500   O     0.43810   0.70117   0.90126   0.00000  Uiso   1.00
N501   N     0.63528   0.64392   0.80781   0.00000  Uiso   1.00
N502   N     0.60866   0.80918   0.61441   0.00000  Uiso   1.00
N503   N     0.47700   0.70392   0.74167   0.00000  Uiso   1.00
N504   N     0.63543   0.65060   0.11053   0.00000  Uiso   1.00
N505   N     0.60882   0.81586   0.91713   0.00000  Uiso   1.00
N506   N     0.47716   0.71060   0.04439   0.00000  Uiso   1.00
C507   C     0.07363   0.21840   0.19468   0.00000  Uiso   1.00
C508   C     0.09065   0.19951   0.29984   0.00000  Uiso   1.00
C509   C     0.10488   0.17990   0.21963   0.00000  Uiso   1.00
C510   C     0.11924   0.16469   0.33977   0.00000  Uiso   1.00
C511   C     0.14567   0.13471   0.47364   0.00000  Uiso   1.00
C512   C     0.08332   0.24505   0.24654   0.00000  Uiso   1.00
C513   C     0.09139   0.26374   0.12151   0.00000  Uiso   1.00
C514   C     0.09956   0.28687   0.19679   0.00000  Uiso   1.00
C515   C     0.11459   0.32761   0.24789   0.00000  Uiso   1.00
C516   C     0.04704   0.21604   0.28161   0.00000  Uiso   1.00
C517   C     0.02459   0.21033   0.18607   0.00000  Uiso   1.00
C518   C     0.00222   0.20905   0.29088   0.00000  Uiso   1.00
C519   C     0.96091   0.20473   0.39644   0.00000  Uiso   1.00
C520   C     0.07381   0.22626   0.55067   0.00000  Uiso   1.00
C521   C     0.09075   0.20378   0.49320   0.00000  Uiso   1.00
C522   C     0.10509   0.18859   0.61350   0.00000  Uiso   1.00
C523   C     0.11934   0.16896   0.53348   0.00000  Uiso   1.00
C524   C     0.08342   0.24932   0.43989   0.00000  Uiso   1.00
C525   C     0.09159   0.27244   0.51537   0.00000  Uiso   1.00
C526   C     0.09966   0.29115   0.39050   0.00000  Uiso   1.00
C527   C     0.04714   0.22031   0.47498   0.00000  Uiso   1.00
C528   C     0.02480   0.21903   0.57994   0.00000  Uiso   1.00
C529   C     0.00232   0.21332   0.48459   0.00000  Uiso   1.00
H530   H     0.07355   0.21508   0.04413   0.00000  Uiso   1.00
H531   H     0.10480   0.17660   0.06998   0.00000  Uiso   1.00
H532   H     0.09130   0.26043   0.97188   0.00000  Uiso   1.00
H533   H     0.02452   0.20703   0.03644   0.00000  Uiso   1.00
H534   H     0.13950   0.13583   0.18390   0.00000  Uiso   1.00
H535   H     0.11103   0.31259   0.97704   0.00000  Uiso   1.00
H536   H     0.97021   0.19999   0.11317   0.00000  Uiso   1.00
H537   H     0.07389   0.22959   0.70122   0.00000  Uiso   1.00
H538   H     0.10516   0.19190   0.76313   0.00000  Uiso   1.00
H539   H     0.09166   0.27573   0.66502   0.00000  Uiso   1.00
H540   H     0.02488   0.22233   0.72957   0.00000  Uiso   1.00
H541   H     0.13979   0.14825   0.74648   0.00000  Uiso   1.00
H542   H     0.11132   0.32501   0.53962   0.00000  Uiso   1.00
H543   H     0.97050   0.21241   0.67575   0.00000  Uiso   1.00
O544   O     0.16022   0.11699   0.49405   0.00000  Uiso   1.00
O545   O     0.12286   0.34890   0.22266   0.00000  Uiso   1.00
O546   O     0.93810   0.20117   0.40126   0.00000  Uiso   1.00
N547   N     0.13528   0.14392   0.30781   0.00000  Uiso   1.00
N548   N     0.10866   0.30918   0.11441   0.00000  Uiso   1.00
N549   N     0.97700   0.20392   0.24167   0.00000  Uiso   1.00
N550   N     0.13543   0.15060   0.61053   0.00000  Uiso   1.00
N551   N     0.10882   0.31586   0.41713   0.00000  Uiso   1.00
N552   N     0.97716   0.21060   0.54439   0.00000  Uiso   1.00
C553   C     0.71840   0.92637   0.94468   0.00000  Uiso   1.00
C554   C     0.69951   0.90935   0.04984   0.00000  Uiso   1.00
C555   C     0.67990   0.89512   0.96963   0.00000  Uiso   1.00
C556   C     0.66469   0.88076   0.08977   0.00000  Uiso   1.00
C557   C     0.63471   0.85433   0.22364   0.00000  Uiso   1.00
C558   C     0.74505   0.91668   0.99654   0.00000  Uiso   1.00
C559   C     0.76374   0.90861   0.87151   0.00000  Uiso   1.00
C560   C     0.78687   0.90044   0.94679   0.00000  Uiso   1.00
C561   C     0.82761   0.88541   0.99789   0.00000  Uiso   1.00
C562   C     0.71604   0.95296   0.03161   0.00000  Uiso   1.00
C563   C     0.71033   0.97541   0.93607   0.00000  Uiso   1.00
C564   C     0.70905   0.99778   0.04088   0.00000  Uiso   1.00
C565   C     0.70473   0.03909   0.14644   0.00000  Uiso   1.00
C566   C     0.72626   0.92619   0.30067   0.00000  Uiso   1.00
C567   C     0.70378   0.90925   0.24320   0.00000  Uiso   1.00
C568   C     0.68859   0.89491   0.36350   0.00000  Uiso   1.00
C569   C     0.66896   0.88066   0.28348   0.00000  Uiso   1.00
C570   C     0.74932   0.91658   0.18989   0.00000  Uiso   1.00
C571   C     0.77244   0.90841   0.26537   0.00000  Uiso   1.00
C572   C     0.79115   0.90034   0.14050   0.00000  Uiso   1.00
C573   C     0.72031   0.95286   0.22498   0.00000  Uiso   1.00
C574   C     0.71903   0.97520   0.32994   0.00000  Uiso   1.00
C575   C     0.71332   0.99768   0.23459   0.00000  Uiso   1.00
H576   H     0.71508   0.92645   0.79413   0.00000  Uiso   1.00
H577   H     0.67660   0.89520   0.81998   0.00000  Uiso   1.00
H578   H     0.76043   0.90870   0.72188   0.00000  Uiso   1.00
H579   H     0.70703   0.97548   0.78644   0.00000  Uiso   1.00
H580   H     0.63583   0.86050   0.93390   0.00000  Uiso   1.00
H581   H     0.81259   0.88897   0.72704   0.00000  Uiso   1.00
H582   H     0.69999   0.02979   0.86317   0.00000  Uiso   1.00
H583   H     0.72959   0.92611   0.45122   0.00000  Uiso   1.00
H584   H     0.69190   0.89484   0.51313   0.00000  Uiso   1.00
H585   H     0.77573   0.90834   0.41502   0.00000  Uiso   1.00
H586   H     0.72233   0.97512   0.47957   0.00000  Uiso   1.00
H587   H     0.64825   0.86021   0.49648   0.00000  Uiso   1.00
H588   H     0.82501   0.88868   0.28962   0.00000  Uiso   1.00
H589   H     0.71241   0.02950   0.42575   0.00000  Uiso   1.00
O590   O     0.61699   0.83978   0.24405   0.00000  Uiso   1.00
O591   O     0.84890   0.87714   0.97266   0.00000  Uiso   1.00
O592   O     0.70117   0.06190   0.15126   0.00000  Uiso   1.00
N593   N     0.64392   0.86472   0.05781   0.00000  Uiso   1.00
N594   N     0.80918   0.89134   0.86441   0.00000  Uiso   1.00
N595   N     0.70392   0.02300   0.99167   0.00000  Uiso   1.00
N596   N     0.65060   0.86457   0.36053   0.00000  Uiso   1.00
N597   N     0.81586   0.89118   0.16713   0.00000  Uiso   1.00
N598   N     0.71060   0.02284   0.29439   0.00000  Uiso   1.00
C599   C     0.21840   0.42637   0.44468   0.00000  Uiso   1.00
C600   C     0.19951   0.40935   0.54984   0.00000  Uiso   1.00
C601   C     0.17990   0.39512   0.46963   0.00000  Uiso   1.00
C602   C     0.16469   0.38076   0.58977   0.00000  Uiso   1.00
C603   C     0.13471   0.35433   0.72364   0.00000  Uiso   1.00
C604   C     0.24505   0.41668   0.49654   0.00000  Uiso   1.00
C605   C     0.26374   0.40861   0.37151   0.00000  Uiso   1.00
C606   C     0.28687   0.40044   0.44679   0.00000  Uiso   1.00
C607   C     0.32761   0.38541   0.49789   0.00000  Uiso   1.00
C608   C     0.21604   0.45296   0.53161   0.00000  Uiso   1.00
C609   C     0.21033   0.47541   0.43607   0.00000  Uiso   1.00
C610   C     0.20905   0.49778   0.54088   0.00000  Uiso   1.00
C611   C     0.20473   0.53909   0.64644   0.00000  Uiso   1.00
C612   C     0.22626   0.42619   0.80067   0.00000  Uiso   1.00
C613   C     0.20378   0.40925   0.74320   0.00000  Uiso   1.00
C614   C     0.18859   0.39491   0.86350   0.00000  Uiso   1.00
C615   C     0.16896   0.38066   0.78348   0.00000  Uiso   1.00
C616   C     0.24932   0.41658   0.68989   0.00000  Uiso   1.00
C617   C     0.27244   0.40841   0.76537   0.00000  Uiso   1.00
C618   C     0.29115   0.40034   0.64050   0.00000  Uiso   1.00
C619   C     0.22031   0.45286   0.72498   0.00000  Uiso   1.00
C620   C     0.21903   0.47520   0.82994   0.00000  Uiso   1.00
C621   C     0.21332   0.49768   0.73459   0.00000  Uiso   1.00
H622   H     0.21508   0.42645   0.29413   0.00000  Uiso   1.00
H623   H     0.17660   0.39520   0.31998   0.00000  Uiso   1.00
H624   H     0.26043   0.40870   0.22188   0.00000  Uiso   1.00
H625   H     0.20703   0.47548   0.28644   0.00000  Uiso   1.00
H626   H     0.13583   0.36050   0.43390   0.00000  Uiso   1.00
H627   H     0.31259   0.38897   0.22704   0.00000  Uiso   1.00
H628   H     0.19999   0.52979   0.36317   0.00000  Uiso   1.00
H629   H     0.22959   0.42611   0.95122   0.00000  Uiso   1.00
H630   H     0.19190   0.39484   0.01313   0.00000  Uiso   1.00
H631   H     0.27573   0.40834   0.91502   0.00000  Uiso   1.00
H632   H     0.22233   0.47512   0.97957   0.00000  Uiso   1.00
H633   H     0.14825   0.36021   0.99648   0.00000  Uiso   1.00
H634   H     0.32501   0.38868   0.78962   0.00000  Uiso   1.00
H635   H     0.21241   0.52950   0.92575   0.00000  Uiso   1.00
O636   O     0.11699   0.33978   0.74405   0.00000  Uiso   1.00
O637   O     0.34890   0.37714   0.47266   0.00000  Uiso   1.00
O638   O     0.20117   0.56190   0.65126   0.00000  Uiso   1.00
N639   N     0.14392   0.36472   0.55781   0.00000  Uiso   1.00
N640   N     0.30918   0.39134   0.36441   0.00000  Uiso   1.00
N641   N     0.20392   0.52300   0.49167   0.00000  Uiso   1.00
N642   N     0.15060   0.36457   0.86053   0.00000  Uiso   1.00
N643   N     0.31586   0.39118   0.66713   0.00000  Uiso   1.00
N644   N     0.21060   0.52284   0.79439   0.00000  Uiso   1.00
C645   C     0.78160   0.57363   0.44468   0.00000  Uiso   1.00
C646   C     0.80049   0.59065   0.54984   0.00000  Uiso   1.00
C647   C     0.82010   0.60488   0.46963   0.00000  Uiso   1.00
C648   C     0.83531   0.61924   0.58977   0.00000  Uiso   1.00
C649   C     0.86529   0.64567   0.72364   0.00000  Uiso   1.00
C650   C     0.75495   0.58332   0.49654   0.00000  Uiso   1.00
C651   C     0.73626   0.59139   0.37151   0.00000  Uiso   1.00
C652   C     0.71313   0.59956   0.44679   0.00000  Uiso   1.00
C653   C     0.67239   0.61459   0.49789   0.00000  Uiso   1.00
C654   C     0.78396   0.54704   0.53161   0.00000  Uiso   1.00
C655   C     0.78967   0.52459   0.43607   0.00000  Uiso   1.00
C656   C     0.79095   0.50222   0.54088   0.00000  Uiso   1.00
C657   C     0.79527   0.46091   0.64644   0.00000  Uiso   1.00
C658   C     0.77374   0.57381   0.80067   0.00000  Uiso   1.00
C659   C     0.79622   0.59075   0.74320   0.00000  Uiso   1.00
C660   C     0.81141   0.60509   0.86350   0.00000  Uiso   1.00
C661   C     0.83104   0.61934   0.78348   0.00000  Uiso   1.00
C662   C     0.75068   0.58342   0.68989   0.00000  Uiso   1.00
C663   C     0.72756   0.59159   0.76537   0.00000  Uiso   1.00
C664   C     0.70885   0.59966   0.64050   0.00000  Uiso   1.00
C665   C     0.77969   0.54714   0.72498   0.00000  Uiso   1.00
C666   C     0.78097   0.52480   0.82994   0.00000  Uiso   1.00
C667   C     0.78668   0.50232   0.73459   0.00000  Uiso   1.00
H668   H     0.78492   0.57355   0.29413   0.00000  Uiso   1.00
H669   H     0.82340   0.60480   0.31998   0.00000  Uiso   1.00
H670   H     0.73957   0.59130   0.22188   0.00000  Uiso   1.00
H671   H     0.79297   0.52452   0.28644   0.00000  Uiso   1.00
H672   H     0.86417   0.63950   0.43390   0.00000  Uiso   1.00
H673   H     0.68741   0.61103   0.22704   0.00000  Uiso   1.00
H674   H     0.80001   0.47021   0.36317   0.00000  Uiso   1.00
H675   H     0.77041   0.57389   0.95122   0.00000  Uiso   1.00
H676   H     0.80810   0.60516   0.01313   0.00000  Uiso   1.00
H677   H     0.72427   0.59166   0.91502   0.00000  Uiso   1.00
H678   H     0.77767   0.52488   0.97957   0.00000  Uiso   1.00
H679   H     0.85175   0.63979   0.99648   0.00000  Uiso   1.00
H680   H     0.67499   0.61132   0.78962   0.00000  Uiso   1.00
H681   H     0.78759   0.47050   0.92575   0.00000  Uiso   1.00
O682   O     0.88301   0.66022   0.74405   0.00000  Uiso   1.00
O683   O     0.65110   0.62286   0.47266   0.00000  Uiso   1.00
O684   O     0.79883   0.43810   0.65126   0.00000  Uiso   1.00
N685   N     0.85608   0.63528   0.55781   0.00000  Uiso   1.00
N686   N     0.69082   0.60866   0.36441   0.00000  Uiso   1.00
N687   N     0.79608   0.47700   0.49167   0.00000  Uiso   1.00
N688   N     0.84940   0.63543   0.86053   0.00000  Uiso   1.00
N689   N     0.68414   0.60882   0.66713   0.00000  Uiso   1.00
N690   N     0.78940   0.47716   0.79439   0.00000  Uiso   1.00
C691   C     0.28160   0.07363   0.94468   0.00000  Uiso   1.00
C692   C     0.30049   0.09065   0.04984   0.00000  Uiso   1.00
C693   C     0.32010   0.10488   0.96963   0.00000  Uiso   1.00
C694   C     0.33531   0.11924   0.08977   0.00000  Uiso   1.00
C695   C     0.36529   0.14567   0.22364   0.00000  Uiso   1.00
C696   C     0.25495   0.08332   0.99654   0.00000  Uiso   1.00
C697   C     0.23626   0.09139   0.87151   0.00000  Uiso   1.00
C698   C     0.21313   0.09956   0.94679   0.00000  Uiso   1.00
C699   C     0.17239   0.11459   0.99789   0.00000  Uiso   1.00
C700   C     0.28396   0.04704   0.03161   0.00000  Uiso   1.00
C701   C     0.28967   0.02459   0.93607   0.00000  Uiso   1.00
C702   C     0.29095   0.00222   0.04088   0.00000  Uiso   1.00
C703   C     0.29527   0.96091   0.14644   0.00000  Uiso   1.00
C704   C     0.27374   0.07381   0.30067   0.00000  Uiso   1.00
C705   C     0.29622   0.09075   0.24320   0.00000  Uiso   1.00
C706   C     0.31141   0.10509   0.36350   0.00000  Uiso   1.00
C707   C     0.33104   0.11934   0.28348   0.00000  Uiso   1.00
C708   C     0.25068   0.08342   0.18989   0.00000  Uiso   1.00
C709   C     0.22756   0.09159   0.26537   0.00000  Uiso   1.00
C710   C     0.20885   0.09966   0.14050   0.00000  Uiso   1.00
C711   C     0.27969   0.04714   0.22498   0.00000  Uiso   1.00
C712   C     0.28097   0.02480   0.32994   0.00000  Uiso   1.00
C713   C     0.28668   0.00232   0.23459   0.00000  Uiso   1.00
H714   H     0.28492   0.07355   0.79413   0.00000  Uiso   1.00
H715   H     0.32340   0.10480   0.81998   0.00000  Uiso   1.00
H716   H     0.23957   0.09130   0.72188   0.00000  Uiso   1.00
H717   H     0.29297   0.02452   0.78644   0.00000  Uiso   1.00
H718   H     0.36417   0.13950   0.93390   0.00000  Uiso   1.00
H719   H     0.18741   0.11103   0.72704   0.00000  Uiso   1.00
H720   H     0.30001   0.97021   0.86317   0.00000  Uiso   1.00
H721   H     0.27041   0.07389   0.45122   0.00000  Uiso   1.00
H722   H     0.30810   0.10516   0.51313   0.00000  Uiso   1.00
H723   H     0.22427   0.09166   0.41502   0.00000  Uiso   1.00
H724   H     0.27767   0.02488   0.47957   0.00000  Uiso   1.00
H725   H     0.35175   0.13979   0.49648   0.00000  Uiso   1.00
H726   H     0.17499   0.11132   0.28962   0.00000  Uiso   1.00
H727   H     0.28759   0.97050   0.42575   0.00000  Uiso   1.00
O728   O     0.38301   0.16022   0.24405   0.00000  Uiso   1.00
O729   O     0.15110   0.12286   0.97266   0.00000  Uiso   1.00
O730   O     0.29883   0.93810   0.15126   0.00000  Uiso   1.00
N731   N     0.35608   0.13528   0.05781   0.00000  Uiso   1.00
N732   N     0.19082   0.10866   0.86441   0.00000  Uiso   1.00
N733   N     0.29608   0.97700   0.99167   0.00000  Uiso   1.00
N734   N     0.34940   0.13543   0.36053   0.00000  Uiso   1.00
N735   N     0.18414   0.10882   0.16713   0.00000  Uiso   1.00
N736   N     0.28940   0.97716   0.29439   0.00000  Uiso   1.00
