data_job_05678
_audit_creation_date              2018-12-19
_audit_creation_method            'Materials Studio'
_symmetry_space_group_name_H-M    'P1'
_symmetry_Int_Tables_number       1
_symmetry_cell_setting            triclinic
loop_
_symmetry_equiv_pos_as_xyz
  x,y,z
_cell_length_a                    24.7267
_cell_length_b                    24.7267
_cell_length_c                    20.6475
_cell_angle_alpha                 90.0000
_cell_angle_beta                  90.0000
_cell_angle_gamma                 90.0000
loop_
_atom_site_label
_atom_site_type_symbol
_atom_site_fract_x
_atom_site_fract_y
_atom_site_fract_z
_atom_site_U_iso_or_equiv
_atom_site_adp_type
_atom_site_occupancy
C1     C     0.41361   0.45972   0.34557   0.00000  Uiso   1.00
C2     C     0.35829   0.43330   0.35364   0.00000  Uiso   1.00
C3     C     0.31797   0.45018   0.39579   0.00000  Uiso   1.00
C4     C     0.27024   0.42060   0.39597   0.00000  Uiso   1.00
C5     C     0.18544   0.38638   0.41469   0.00000  Uiso   1.00
C6     C     0.45509   0.41527   0.35795   0.00000  Uiso   1.00
C7     C     0.49616   0.41700   0.40372   0.00000  Uiso   1.00
C8     C     0.52992   0.37225   0.40751   0.00000  Uiso   1.00
C9     C     0.59542   0.31006   0.43289   0.00000  Uiso   1.00
C10    C     0.41849   0.47401   0.27397   0.00000  Uiso   1.00
C11    C     0.42881   0.52513   0.24912   0.00000  Uiso   1.00
C12    C     0.43178   0.52983   0.18220   0.00000  Uiso   1.00
C13    C     0.44046   0.55884   0.07719   0.00000  Uiso   1.00
C14    C     0.40055   0.37716   0.27092   0.00000  Uiso   1.00
C15    C     0.35120   0.38845   0.31309   0.00000  Uiso   1.00
C16    C     0.30352   0.35884   0.31320   0.00000  Uiso   1.00
C17    C     0.26314   0.37568   0.35535   0.00000  Uiso   1.00
C18    C     0.44800   0.37043   0.31740   0.00000  Uiso   1.00
C19    C     0.48171   0.32566   0.32112   0.00000  Uiso   1.00
C20    C     0.52282   0.32732   0.36689   0.00000  Uiso   1.00
C21    C     0.41140   0.42917   0.23342   0.00000  Uiso   1.00
C22    C     0.41436   0.43379   0.16652   0.00000  Uiso   1.00
C23    C     0.42467   0.48490   0.14158   0.00000  Uiso   1.00
H24    H     0.41913   0.49463   0.37714   0.00000  Uiso   1.00
H25    H     0.32348   0.48489   0.42717   0.00000  Uiso   1.00
H26    H     0.50164   0.45171   0.43508   0.00000  Uiso   1.00
H27    H     0.43430   0.55982   0.28051   0.00000  Uiso   1.00
H28    H     0.21430   0.45429   0.46478   0.00000  Uiso   1.00
H29    H     0.58998   0.38436   0.48145   0.00000  Uiso   1.00
H30    H     0.44798   0.61233   0.15550   0.00000  Uiso   1.00
H31    H     0.39503   0.34224   0.23935   0.00000  Uiso   1.00
H32    H     0.29805   0.32414   0.28182   0.00000  Uiso   1.00
H33    H     0.47621   0.29097   0.28973   0.00000  Uiso   1.00
H34    H     0.40887   0.39907   0.13516   0.00000  Uiso   1.00
H35    H     0.19367   0.32383   0.34680   0.00000  Uiso   1.00
H36    H     0.56935   0.25389   0.36347   0.00000  Uiso   1.00
H37    H     0.42734   0.48186   0.03753   0.00000  Uiso   1.00
O38    O     0.14063   0.37989   0.43623   0.00000  Uiso   1.00
O39    O     0.63351   0.28814   0.45809   0.00000  Uiso   1.00
O40    O     0.44720   0.58723   0.03046   0.00000  Uiso   1.00
N41    N     0.22275   0.42608   0.43117   0.00000  Uiso   1.00
N42    N     0.57398   0.36069   0.44677   0.00000  Uiso   1.00
N43    N     0.44124   0.57382   0.14204   0.00000  Uiso   1.00
N44    N     0.21165   0.35588   0.36769   0.00000  Uiso   1.00
N45    N     0.56288   0.29049   0.38329   0.00000  Uiso   1.00
N46    N     0.43013   0.50361   0.07856   0.00000  Uiso   1.00
C47    C     0.91361   0.95972   0.84557   0.00000  Uiso   1.00
C48    C     0.85829   0.93330   0.85364   0.00000  Uiso   1.00
C49    C     0.81797   0.95018   0.89579   0.00000  Uiso   1.00
C50    C     0.77024   0.92060   0.89597   0.00000  Uiso   1.00
C51    C     0.68544   0.88638   0.91469   0.00000  Uiso   1.00
C52    C     0.95509   0.91527   0.85795   0.00000  Uiso   1.00
C53    C     0.99616   0.91700   0.90372   0.00000  Uiso   1.00
C54    C     0.02992   0.87225   0.90751   0.00000  Uiso   1.00
C55    C     0.09542   0.81006   0.93289   0.00000  Uiso   1.00
C56    C     0.91849   0.97401   0.77397   0.00000  Uiso   1.00
C57    C     0.92881   0.02513   0.74912   0.00000  Uiso   1.00
C58    C     0.93178   0.02983   0.68220   0.00000  Uiso   1.00
C59    C     0.94046   0.05884   0.57719   0.00000  Uiso   1.00
C60    C     0.90055   0.87716   0.77092   0.00000  Uiso   1.00
C61    C     0.85120   0.88845   0.81309   0.00000  Uiso   1.00
C62    C     0.80352   0.85884   0.81320   0.00000  Uiso   1.00
C63    C     0.76314   0.87568   0.85535   0.00000  Uiso   1.00
C64    C     0.94800   0.87043   0.81740   0.00000  Uiso   1.00
C65    C     0.98171   0.82566   0.82112   0.00000  Uiso   1.00
C66    C     0.02282   0.82732   0.86689   0.00000  Uiso   1.00
C67    C     0.91140   0.92917   0.73342   0.00000  Uiso   1.00
C68    C     0.91436   0.93379   0.66652   0.00000  Uiso   1.00
C69    C     0.92467   0.98490   0.64158   0.00000  Uiso   1.00
H70    H     0.91913   0.99463   0.87714   0.00000  Uiso   1.00
H71    H     0.82348   0.98489   0.92717   0.00000  Uiso   1.00
H72    H     0.00164   0.95171   0.93508   0.00000  Uiso   1.00
H73    H     0.93430   0.05982   0.78051   0.00000  Uiso   1.00
H74    H     0.71430   0.95429   0.96478   0.00000  Uiso   1.00
H75    H     0.08998   0.88436   0.98145   0.00000  Uiso   1.00
H76    H     0.94798   0.11233   0.65550   0.00000  Uiso   1.00
H77    H     0.89503   0.84224   0.73935   0.00000  Uiso   1.00
H78    H     0.79805   0.82414   0.78182   0.00000  Uiso   1.00
H79    H     0.97621   0.79097   0.78973   0.00000  Uiso   1.00
H80    H     0.90887   0.89907   0.63516   0.00000  Uiso   1.00
H81    H     0.69367   0.82383   0.84680   0.00000  Uiso   1.00
H82    H     0.06935   0.75389   0.86347   0.00000  Uiso   1.00
H83    H     0.92734   0.98186   0.53753   0.00000  Uiso   1.00
O84    O     0.64063   0.87989   0.93623   0.00000  Uiso   1.00
O85    O     0.13351   0.78814   0.95809   0.00000  Uiso   1.00
O86    O     0.94720   0.08723   0.53046   0.00000  Uiso   1.00
N87    N     0.72275   0.92608   0.93117   0.00000  Uiso   1.00
N88    N     0.07398   0.86069   0.94677   0.00000  Uiso   1.00
N89    N     0.94124   0.07382   0.64204   0.00000  Uiso   1.00
N90    N     0.71165   0.85588   0.86769   0.00000  Uiso   1.00
N91    N     0.06288   0.79049   0.88329   0.00000  Uiso   1.00
N92    N     0.93013   0.00361   0.57856   0.00000  Uiso   1.00
C93    C     0.08639   0.04028   0.84557   0.00000  Uiso   1.00
C94    C     0.14171   0.06670   0.85364   0.00000  Uiso   1.00
C95    C     0.18203   0.04982   0.89579   0.00000  Uiso   1.00
C96    C     0.22976   0.07940   0.89597   0.00000  Uiso   1.00
C97    C     0.31456   0.11362   0.91469   0.00000  Uiso   1.00
C98    C     0.04491   0.08473   0.85795   0.00000  Uiso   1.00
C99    C     0.00384   0.08300   0.90372   0.00000  Uiso   1.00
C100   C     0.97008   0.12775   0.90751   0.00000  Uiso   1.00
C101   C     0.90458   0.18994   0.93289   0.00000  Uiso   1.00
C102   C     0.08151   0.02599   0.77397   0.00000  Uiso   1.00
C103   C     0.07119   0.97487   0.74912   0.00000  Uiso   1.00
C104   C     0.06822   0.97017   0.68220   0.00000  Uiso   1.00
C105   C     0.05954   0.94116   0.57719   0.00000  Uiso   1.00
C106   C     0.09945   0.12284   0.77092   0.00000  Uiso   1.00
C107   C     0.14880   0.11155   0.81309   0.00000  Uiso   1.00
C108   C     0.19648   0.14116   0.81320   0.00000  Uiso   1.00
C109   C     0.23686   0.12432   0.85535   0.00000  Uiso   1.00
C110   C     0.05200   0.12957   0.81740   0.00000  Uiso   1.00
C111   C     0.01829   0.17434   0.82112   0.00000  Uiso   1.00
C112   C     0.97718   0.17268   0.86689   0.00000  Uiso   1.00
C113   C     0.08860   0.07083   0.73342   0.00000  Uiso   1.00
C114   C     0.08564   0.06621   0.66652   0.00000  Uiso   1.00
C115   C     0.07533   0.01510   0.64158   0.00000  Uiso   1.00
H116   H     0.08087   0.00537   0.87714   0.00000  Uiso   1.00
H117   H     0.17652   0.01511   0.92717   0.00000  Uiso   1.00
H118   H     0.99836   0.04829   0.93508   0.00000  Uiso   1.00
H119   H     0.06570   0.94018   0.78051   0.00000  Uiso   1.00
H120   H     0.28570   0.04571   0.96478   0.00000  Uiso   1.00
H121   H     0.91002   0.11564   0.98145   0.00000  Uiso   1.00
H122   H     0.05202   0.88767   0.65550   0.00000  Uiso   1.00
H123   H     0.10497   0.15776   0.73935   0.00000  Uiso   1.00
H124   H     0.20195   0.17586   0.78182   0.00000  Uiso   1.00
H125   H     0.02379   0.20903   0.78973   0.00000  Uiso   1.00
H126   H     0.09113   0.10093   0.63516   0.00000  Uiso   1.00
H127   H     0.30633   0.17617   0.84680   0.00000  Uiso   1.00
H128   H     0.93065   0.24611   0.86347   0.00000  Uiso   1.00
H129   H     0.07266   0.01814   0.53753   0.00000  Uiso   1.00
O130   O     0.35937   0.12011   0.93623   0.00000  Uiso   1.00
O131   O     0.86649   0.21186   0.95809   0.00000  Uiso   1.00
O132   O     0.05280   0.91277   0.53046   0.00000  Uiso   1.00
N133   N     0.27725   0.07392   0.93117   0.00000  Uiso   1.00
N134   N     0.92602   0.13931   0.94677   0.00000  Uiso   1.00
N135   N     0.05876   0.92618   0.64204   0.00000  Uiso   1.00
N136   N     0.28835   0.14412   0.86769   0.00000  Uiso   1.00
N137   N     0.93712   0.20951   0.88329   0.00000  Uiso   1.00
N138   N     0.06987   0.99639   0.57856   0.00000  Uiso   1.00
C139   C     0.58639   0.54028   0.34557   0.00000  Uiso   1.00
C140   C     0.64171   0.56670   0.35364   0.00000  Uiso   1.00
C141   C     0.68203   0.54982   0.39579   0.00000  Uiso   1.00
C142   C     0.72976   0.57940   0.39597   0.00000  Uiso   1.00
C143   C     0.81456   0.61362   0.41469   0.00000  Uiso   1.00
C144   C     0.54491   0.58473   0.35795   0.00000  Uiso   1.00
C145   C     0.50384   0.58300   0.40372   0.00000  Uiso   1.00
C146   C     0.47008   0.62775   0.40751   0.00000  Uiso   1.00
C147   C     0.40458   0.68994   0.43289   0.00000  Uiso   1.00
C148   C     0.58151   0.52599   0.27397   0.00000  Uiso   1.00
C149   C     0.57119   0.47487   0.24912   0.00000  Uiso   1.00
C150   C     0.56822   0.47017   0.18220   0.00000  Uiso   1.00
C151   C     0.55954   0.44116   0.07719   0.00000  Uiso   1.00
C152   C     0.59945   0.62284   0.27092   0.00000  Uiso   1.00
C153   C     0.64880   0.61155   0.31309   0.00000  Uiso   1.00
C154   C     0.69648   0.64116   0.31320   0.00000  Uiso   1.00
C155   C     0.73686   0.62432   0.35535   0.00000  Uiso   1.00
C156   C     0.55200   0.62957   0.31740   0.00000  Uiso   1.00
C157   C     0.51829   0.67434   0.32112   0.00000  Uiso   1.00
C158   C     0.47718   0.67268   0.36689   0.00000  Uiso   1.00
C159   C     0.58860   0.57083   0.23342   0.00000  Uiso   1.00
C160   C     0.58564   0.56621   0.16652   0.00000  Uiso   1.00
C161   C     0.57533   0.51510   0.14158   0.00000  Uiso   1.00
H162   H     0.58087   0.50537   0.37714   0.00000  Uiso   1.00
H163   H     0.67652   0.51511   0.42717   0.00000  Uiso   1.00
H164   H     0.49836   0.54829   0.43508   0.00000  Uiso   1.00
H165   H     0.56570   0.44018   0.28051   0.00000  Uiso   1.00
H166   H     0.78570   0.54571   0.46478   0.00000  Uiso   1.00
H167   H     0.41002   0.61564   0.48145   0.00000  Uiso   1.00
H168   H     0.55202   0.38767   0.15550   0.00000  Uiso   1.00
H169   H     0.60497   0.65776   0.23935   0.00000  Uiso   1.00
H170   H     0.70195   0.67586   0.28182   0.00000  Uiso   1.00
H171   H     0.52379   0.70903   0.28973   0.00000  Uiso   1.00
H172   H     0.59113   0.60093   0.13516   0.00000  Uiso   1.00
H173   H     0.80633   0.67617   0.34680   0.00000  Uiso   1.00
H174   H     0.43065   0.74611   0.36347   0.00000  Uiso   1.00
H175   H     0.57266   0.51814   0.03753   0.00000  Uiso   1.00
O176   O     0.85937   0.62011   0.43623   0.00000  Uiso   1.00
O177   O     0.36649   0.71186   0.45809   0.00000  Uiso   1.00
O178   O     0.55280   0.41277   0.03046   0.00000  Uiso   1.00
N179   N     0.77725   0.57392   0.43117   0.00000  Uiso   1.00
N180   N     0.42602   0.63931   0.44677   0.00000  Uiso   1.00
N181   N     0.55876   0.42618   0.14204   0.00000  Uiso   1.00
N182   N     0.78835   0.64412   0.36769   0.00000  Uiso   1.00
N183   N     0.43712   0.70951   0.38329   0.00000  Uiso   1.00
N184   N     0.56987   0.49639   0.07856   0.00000  Uiso   1.00
C185   C     0.54028   0.91361   0.59557   0.00000  Uiso   1.00
C186   C     0.56670   0.85829   0.60364   0.00000  Uiso   1.00
C187   C     0.54982   0.81797   0.64579   0.00000  Uiso   1.00
C188   C     0.57940   0.77024   0.64597   0.00000  Uiso   1.00
C189   C     0.61362   0.68544   0.66469   0.00000  Uiso   1.00
C190   C     0.58473   0.95509   0.60795   0.00000  Uiso   1.00
C191   C     0.58300   0.99616   0.65372   0.00000  Uiso   1.00
C192   C     0.62775   0.02992   0.65751   0.00000  Uiso   1.00
C193   C     0.68994   0.09542   0.68289   0.00000  Uiso   1.00
C194   C     0.52599   0.91849   0.52397   0.00000  Uiso   1.00
C195   C     0.47487   0.92881   0.49912   0.00000  Uiso   1.00
C196   C     0.47017   0.93178   0.43220   0.00000  Uiso   1.00
C197   C     0.44116   0.94046   0.32719   0.00000  Uiso   1.00
C198   C     0.62284   0.90055   0.52092   0.00000  Uiso   1.00
C199   C     0.61155   0.85120   0.56309   0.00000  Uiso   1.00
C200   C     0.64116   0.80352   0.56320   0.00000  Uiso   1.00
C201   C     0.62432   0.76314   0.60535   0.00000  Uiso   1.00
C202   C     0.62957   0.94800   0.56740   0.00000  Uiso   1.00
C203   C     0.67434   0.98171   0.57112   0.00000  Uiso   1.00
C204   C     0.67268   0.02282   0.61689   0.00000  Uiso   1.00
C205   C     0.57083   0.91140   0.48342   0.00000  Uiso   1.00
C206   C     0.56621   0.91436   0.41652   0.00000  Uiso   1.00
C207   C     0.51510   0.92467   0.39158   0.00000  Uiso   1.00
H208   H     0.50537   0.91913   0.62714   0.00000  Uiso   1.00
H209   H     0.51511   0.82348   0.67717   0.00000  Uiso   1.00
H210   H     0.54829   0.00164   0.68508   0.00000  Uiso   1.00
H211   H     0.44018   0.93430   0.53051   0.00000  Uiso   1.00
H212   H     0.54571   0.71430   0.71478   0.00000  Uiso   1.00
H213   H     0.61564   0.08998   0.73145   0.00000  Uiso   1.00
H214   H     0.38767   0.94798   0.40550   0.00000  Uiso   1.00
H215   H     0.65776   0.89503   0.48935   0.00000  Uiso   1.00
H216   H     0.67586   0.79805   0.53182   0.00000  Uiso   1.00
H217   H     0.70903   0.97621   0.53973   0.00000  Uiso   1.00
H218   H     0.60093   0.90887   0.38516   0.00000  Uiso   1.00
H219   H     0.67617   0.69367   0.59680   0.00000  Uiso   1.00
H220   H     0.74611   0.06935   0.61347   0.00000  Uiso   1.00
H221   H     0.51814   0.92734   0.28753   0.00000  Uiso   1.00
O222   O     0.62011   0.64063   0.68623   0.00000  Uiso   1.00
O223   O     0.71186   0.13351   0.70809   0.00000  Uiso   1.00
O224   O     0.41277   0.94720   0.28046   0.00000  Uiso   1.00
N225   N     0.57392   0.72275   0.68117   0.00000  Uiso   1.00
N226   N     0.63931   0.07398   0.69677   0.00000  Uiso   1.00
N227   N     0.42618   0.94124   0.39204   0.00000  Uiso   1.00
N228   N     0.64412   0.71165   0.61769   0.00000  Uiso   1.00
N229   N     0.70951   0.06288   0.63329   0.00000  Uiso   1.00
N230   N     0.49639   0.93013   0.32856   0.00000  Uiso   1.00
C231   C     0.04028   0.41361   0.09557   0.00000  Uiso   1.00
C232   C     0.06670   0.35829   0.10364   0.00000  Uiso   1.00
C233   C     0.04982   0.31797   0.14579   0.00000  Uiso   1.00
C234   C     0.07940   0.27024   0.14597   0.00000  Uiso   1.00
C235   C     0.11362   0.18544   0.16469   0.00000  Uiso   1.00
C236   C     0.08473   0.45509   0.10795   0.00000  Uiso   1.00
C237   C     0.08300   0.49616   0.15372   0.00000  Uiso   1.00
C238   C     0.12775   0.52992   0.15751   0.00000  Uiso   1.00
C239   C     0.18994   0.59542   0.18289   0.00000  Uiso   1.00
C240   C     0.02599   0.41849   0.02397   0.00000  Uiso   1.00
C241   C     0.97487   0.42881   0.99912   0.00000  Uiso   1.00
C242   C     0.97017   0.43178   0.93220   0.00000  Uiso   1.00
C243   C     0.94116   0.44046   0.82719   0.00000  Uiso   1.00
C244   C     0.12284   0.40055   0.02092   0.00000  Uiso   1.00
C245   C     0.11155   0.35120   0.06309   0.00000  Uiso   1.00
C246   C     0.14116   0.30352   0.06320   0.00000  Uiso   1.00
C247   C     0.12432   0.26314   0.10535   0.00000  Uiso   1.00
C248   C     0.12957   0.44800   0.06740   0.00000  Uiso   1.00
C249   C     0.17434   0.48171   0.07112   0.00000  Uiso   1.00
C250   C     0.17268   0.52282   0.11689   0.00000  Uiso   1.00
C251   C     0.07083   0.41140   0.98342   0.00000  Uiso   1.00
C252   C     0.06621   0.41436   0.91652   0.00000  Uiso   1.00
C253   C     0.01510   0.42467   0.89158   0.00000  Uiso   1.00
H254   H     0.00537   0.41913   0.12714   0.00000  Uiso   1.00
H255   H     0.01511   0.32348   0.17717   0.00000  Uiso   1.00
H256   H     0.04829   0.50164   0.18508   0.00000  Uiso   1.00
H257   H     0.94018   0.43430   0.03051   0.00000  Uiso   1.00
H258   H     0.04571   0.21430   0.21478   0.00000  Uiso   1.00
H259   H     0.11564   0.58998   0.23145   0.00000  Uiso   1.00
H260   H     0.88767   0.44798   0.90550   0.00000  Uiso   1.00
H261   H     0.15776   0.39503   0.98935   0.00000  Uiso   1.00
H262   H     0.17586   0.29805   0.03182   0.00000  Uiso   1.00
H263   H     0.20903   0.47621   0.03973   0.00000  Uiso   1.00
H264   H     0.10093   0.40887   0.88516   0.00000  Uiso   1.00
H265   H     0.17617   0.19367   0.09680   0.00000  Uiso   1.00
H266   H     0.24611   0.56935   0.11347   0.00000  Uiso   1.00
H267   H     0.01814   0.42734   0.78753   0.00000  Uiso   1.00
O268   O     0.12011   0.14063   0.18623   0.00000  Uiso   1.00
O269   O     0.21186   0.63351   0.20809   0.00000  Uiso   1.00
O270   O     0.91277   0.44720   0.78046   0.00000  Uiso   1.00
N271   N     0.07392   0.22275   0.18117   0.00000  Uiso   1.00
N272   N     0.13931   0.57398   0.19677   0.00000  Uiso   1.00
N273   N     0.92618   0.44124   0.89204   0.00000  Uiso   1.00
N274   N     0.14412   0.21165   0.11769   0.00000  Uiso   1.00
N275   N     0.20951   0.56288   0.13329   0.00000  Uiso   1.00
N276   N     0.99639   0.43013   0.82856   0.00000  Uiso   1.00
C277   C     0.95972   0.58639   0.09557   0.00000  Uiso   1.00
C278   C     0.93330   0.64171   0.10364   0.00000  Uiso   1.00
C279   C     0.95018   0.68203   0.14579   0.00000  Uiso   1.00
C280   C     0.92060   0.72976   0.14597   0.00000  Uiso   1.00
C281   C     0.88638   0.81456   0.16469   0.00000  Uiso   1.00
C282   C     0.91527   0.54491   0.10795   0.00000  Uiso   1.00
C283   C     0.91700   0.50384   0.15372   0.00000  Uiso   1.00
C284   C     0.87225   0.47008   0.15751   0.00000  Uiso   1.00
C285   C     0.81006   0.40458   0.18289   0.00000  Uiso   1.00
C286   C     0.97401   0.58151   0.02397   0.00000  Uiso   1.00
C287   C     0.02513   0.57119   0.99912   0.00000  Uiso   1.00
C288   C     0.02983   0.56822   0.93220   0.00000  Uiso   1.00
C289   C     0.05884   0.55954   0.82719   0.00000  Uiso   1.00
C290   C     0.87716   0.59945   0.02092   0.00000  Uiso   1.00
C291   C     0.88845   0.64880   0.06309   0.00000  Uiso   1.00
C292   C     0.85884   0.69648   0.06320   0.00000  Uiso   1.00
C293   C     0.87568   0.73686   0.10535   0.00000  Uiso   1.00
C294   C     0.87043   0.55200   0.06740   0.00000  Uiso   1.00
C295   C     0.82566   0.51829   0.07112   0.00000  Uiso   1.00
C296   C     0.82732   0.47718   0.11689   0.00000  Uiso   1.00
C297   C     0.92917   0.58860   0.98342   0.00000  Uiso   1.00
C298   C     0.93379   0.58564   0.91652   0.00000  Uiso   1.00
C299   C     0.98490   0.57533   0.89158   0.00000  Uiso   1.00
H300   H     0.99463   0.58087   0.12714   0.00000  Uiso   1.00
H301   H     0.98489   0.67652   0.17717   0.00000  Uiso   1.00
H302   H     0.95171   0.49836   0.18508   0.00000  Uiso   1.00
H303   H     0.05982   0.56570   0.03051   0.00000  Uiso   1.00
H304   H     0.95429   0.78570   0.21478   0.00000  Uiso   1.00
H305   H     0.88436   0.41002   0.23145   0.00000  Uiso   1.00
H306   H     0.11233   0.55202   0.90550   0.00000  Uiso   1.00
H307   H     0.84224   0.60497   0.98935   0.00000  Uiso   1.00
H308   H     0.82414   0.70195   0.03182   0.00000  Uiso   1.00
H309   H     0.79097   0.52379   0.03973   0.00000  Uiso   1.00
H310   H     0.89907   0.59113   0.88516   0.00000  Uiso   1.00
H311   H     0.82383   0.80633   0.09680   0.00000  Uiso   1.00
H312   H     0.75389   0.43065   0.11347   0.00000  Uiso   1.00
H313   H     0.98186   0.57266   0.78753   0.00000  Uiso   1.00
O314   O     0.87989   0.85937   0.18623   0.00000  Uiso   1.00
O315   O     0.78814   0.36649   0.20809   0.00000  Uiso   1.00
O316   O     0.08723   0.55280   0.78046   0.00000  Uiso   1.00
N317   N     0.92608   0.77725   0.18117   0.00000  Uiso   1.00
N318   N     0.86069   0.42602   0.19677   0.00000  Uiso   1.00
N319   N     0.07382   0.55876   0.89204   0.00000  Uiso   1.00
N320   N     0.85588   0.78835   0.11769   0.00000  Uiso   1.00
N321   N     0.79049   0.43712   0.13329   0.00000  Uiso   1.00
N322   N     0.00361   0.56987   0.82856   0.00000  Uiso   1.00
C323   C     0.45972   0.08639   0.59557   0.00000  Uiso   1.00
C324   C     0.43330   0.14171   0.60364   0.00000  Uiso   1.00
C325   C     0.45018   0.18203   0.64579   0.00000  Uiso   1.00
C326   C     0.42060   0.22976   0.64597   0.00000  Uiso   1.00
C327   C     0.38638   0.31456   0.66469   0.00000  Uiso   1.00
C328   C     0.41527   0.04491   0.60795   0.00000  Uiso   1.00
C329   C     0.41700   0.00384   0.65372   0.00000  Uiso   1.00
C330   C     0.37225   0.97008   0.65751   0.00000  Uiso   1.00
C331   C     0.31006   0.90458   0.68289   0.00000  Uiso   1.00
C332   C     0.47401   0.08151   0.52397   0.00000  Uiso   1.00
C333   C     0.52513   0.07119   0.49912   0.00000  Uiso   1.00
C334   C     0.52983   0.06822   0.43220   0.00000  Uiso   1.00
C335   C     0.55884   0.05954   0.32719   0.00000  Uiso   1.00
C336   C     0.37716   0.09945   0.52092   0.00000  Uiso   1.00
C337   C     0.38845   0.14880   0.56309   0.00000  Uiso   1.00
C338   C     0.35884   0.19648   0.56320   0.00000  Uiso   1.00
C339   C     0.37568   0.23686   0.60535   0.00000  Uiso   1.00
C340   C     0.37043   0.05200   0.56740   0.00000  Uiso   1.00
C341   C     0.32566   0.01829   0.57112   0.00000  Uiso   1.00
C342   C     0.32732   0.97718   0.61689   0.00000  Uiso   1.00
C343   C     0.42917   0.08860   0.48342   0.00000  Uiso   1.00
C344   C     0.43379   0.08564   0.41652   0.00000  Uiso   1.00
C345   C     0.48490   0.07533   0.39158   0.00000  Uiso   1.00
H346   H     0.49463   0.08087   0.62714   0.00000  Uiso   1.00
H347   H     0.48489   0.17652   0.67717   0.00000  Uiso   1.00
H348   H     0.45171   0.99836   0.68508   0.00000  Uiso   1.00
H349   H     0.55982   0.06570   0.53051   0.00000  Uiso   1.00
H350   H     0.45429   0.28570   0.71478   0.00000  Uiso   1.00
H351   H     0.38436   0.91002   0.73145   0.00000  Uiso   1.00
H352   H     0.61233   0.05202   0.40550   0.00000  Uiso   1.00
H353   H     0.34224   0.10497   0.48935   0.00000  Uiso   1.00
H354   H     0.32414   0.20195   0.53182   0.00000  Uiso   1.00
H355   H     0.29097   0.02379   0.53973   0.00000  Uiso   1.00
H356   H     0.39907   0.09113   0.38516   0.00000  Uiso   1.00
H357   H     0.32383   0.30633   0.59680   0.00000  Uiso   1.00
H358   H     0.25389   0.93065   0.61347   0.00000  Uiso   1.00
H359   H     0.48186   0.07266   0.28753   0.00000  Uiso   1.00
O360   O     0.37989   0.35937   0.68623   0.00000  Uiso   1.00
O361   O     0.28814   0.86649   0.70809   0.00000  Uiso   1.00
O362   O     0.58723   0.05280   0.28046   0.00000  Uiso   1.00
N363   N     0.42608   0.27725   0.68117   0.00000  Uiso   1.00
N364   N     0.36069   0.92602   0.69677   0.00000  Uiso   1.00
N365   N     0.57382   0.05876   0.39204   0.00000  Uiso   1.00
N366   N     0.35588   0.28835   0.61769   0.00000  Uiso   1.00
N367   N     0.29049   0.93712   0.63329   0.00000  Uiso   1.00
N368   N     0.50361   0.06987   0.32856   0.00000  Uiso   1.00
C369   C     0.58639   0.04028   0.90443   0.00000  Uiso   1.00
C370   C     0.64171   0.06670   0.89636   0.00000  Uiso   1.00
C371   C     0.68203   0.04982   0.85421   0.00000  Uiso   1.00
C372   C     0.72976   0.07940   0.85403   0.00000  Uiso   1.00
C373   C     0.81456   0.11362   0.83531   0.00000  Uiso   1.00
C374   C     0.54491   0.08473   0.89205   0.00000  Uiso   1.00
C375   C     0.50384   0.08300   0.84628   0.00000  Uiso   1.00
C376   C     0.47008   0.12775   0.84249   0.00000  Uiso   1.00
C377   C     0.40458   0.18994   0.81711   0.00000  Uiso   1.00
C378   C     0.58151   0.02599   0.97603   0.00000  Uiso   1.00
C379   C     0.57119   0.97487   0.00088   0.00000  Uiso   1.00
C380   C     0.56822   0.97017   0.06780   0.00000  Uiso   1.00
C381   C     0.55954   0.94116   0.17281   0.00000  Uiso   1.00
C382   C     0.59945   0.12284   0.97908   0.00000  Uiso   1.00
C383   C     0.64880   0.11155   0.93691   0.00000  Uiso   1.00
C384   C     0.69648   0.14116   0.93680   0.00000  Uiso   1.00
C385   C     0.73686   0.12432   0.89465   0.00000  Uiso   1.00
C386   C     0.55200   0.12957   0.93260   0.00000  Uiso   1.00
C387   C     0.51829   0.17434   0.92888   0.00000  Uiso   1.00
C388   C     0.47718   0.17268   0.88311   0.00000  Uiso   1.00
C389   C     0.58860   0.07083   0.01658   0.00000  Uiso   1.00
C390   C     0.58564   0.06621   0.08348   0.00000  Uiso   1.00
C391   C     0.57533   0.01510   0.10842   0.00000  Uiso   1.00
H392   H     0.58087   0.00537   0.87286   0.00000  Uiso   1.00
H393   H     0.67652   0.01511   0.82283   0.00000  Uiso   1.00
H394   H     0.49836   0.04829   0.81492   0.00000  Uiso   1.00
H395   H     0.56570   0.94018   0.96949   0.00000  Uiso   1.00
H396   H     0.78570   0.04571   0.78522   0.00000  Uiso   1.00
H397   H     0.41002   0.11564   0.76855   0.00000  Uiso   1.00
H398   H     0.55202   0.88767   0.09450   0.00000  Uiso   1.00
H399   H     0.60497   0.15776   0.01065   0.00000  Uiso   1.00
H400   H     0.70195   0.17586   0.96818   0.00000  Uiso   1.00
H401   H     0.52379   0.20903   0.96027   0.00000  Uiso   1.00
H402   H     0.59113   0.10093   0.11484   0.00000  Uiso   1.00
H403   H     0.80633   0.17617   0.90320   0.00000  Uiso   1.00
H404   H     0.43065   0.24611   0.88653   0.00000  Uiso   1.00
H405   H     0.57266   0.01814   0.21247   0.00000  Uiso   1.00
O406   O     0.85937   0.12011   0.81377   0.00000  Uiso   1.00
O407   O     0.36649   0.21186   0.79191   0.00000  Uiso   1.00
O408   O     0.55280   0.91277   0.21954   0.00000  Uiso   1.00
N409   N     0.77725   0.07392   0.81883   0.00000  Uiso   1.00
N410   N     0.42602   0.13931   0.80323   0.00000  Uiso   1.00
N411   N     0.55876   0.92618   0.10796   0.00000  Uiso   1.00
N412   N     0.78835   0.14412   0.88231   0.00000  Uiso   1.00
N413   N     0.43712   0.20951   0.86671   0.00000  Uiso   1.00
N414   N     0.56987   0.99639   0.17144   0.00000  Uiso   1.00
C415   C     0.08639   0.54028   0.40443   0.00000  Uiso   1.00
C416   C     0.14171   0.56670   0.39636   0.00000  Uiso   1.00
C417   C     0.18203   0.54982   0.35421   0.00000  Uiso   1.00
C418   C     0.22976   0.57940   0.35403   0.00000  Uiso   1.00
C419   C     0.31456   0.61362   0.33531   0.00000  Uiso   1.00
C420   C     0.04491   0.58473   0.39205   0.00000  Uiso   1.00
C421   C     0.00384   0.58300   0.34628   0.00000  Uiso   1.00
C422   C     0.97008   0.62775   0.34249   0.00000  Uiso   1.00
C423   C     0.90458   0.68994   0.31711   0.00000  Uiso   1.00
C424   C     0.08151   0.52599   0.47603   0.00000  Uiso   1.00
C425   C     0.07119   0.47487   0.50088   0.00000  Uiso   1.00
C426   C     0.06822   0.47017   0.56780   0.00000  Uiso   1.00
C427   C     0.05954   0.44116   0.67281   0.00000  Uiso   1.00
C428   C     0.09945   0.62284   0.47908   0.00000  Uiso   1.00
C429   C     0.14880   0.61155   0.43691   0.00000  Uiso   1.00
C430   C     0.19648   0.64116   0.43680   0.00000  Uiso   1.00
C431   C     0.23686   0.62432   0.39465   0.00000  Uiso   1.00
C432   C     0.05200   0.62957   0.43260   0.00000  Uiso   1.00
C433   C     0.01829   0.67434   0.42888   0.00000  Uiso   1.00
C434   C     0.97718   0.67268   0.38311   0.00000  Uiso   1.00
C435   C     0.08860   0.57083   0.51658   0.00000  Uiso   1.00
C436   C     0.08564   0.56621   0.58348   0.00000  Uiso   1.00
C437   C     0.07533   0.51510   0.60842   0.00000  Uiso   1.00
H438   H     0.08087   0.50537   0.37286   0.00000  Uiso   1.00
H439   H     0.17652   0.51511   0.32283   0.00000  Uiso   1.00
H440   H     0.99836   0.54829   0.31492   0.00000  Uiso   1.00
H441   H     0.06570   0.44018   0.46949   0.00000  Uiso   1.00
H442   H     0.28570   0.54571   0.28522   0.00000  Uiso   1.00
H443   H     0.91002   0.61564   0.26855   0.00000  Uiso   1.00
H444   H     0.05202   0.38767   0.59450   0.00000  Uiso   1.00
H445   H     0.10497   0.65776   0.51065   0.00000  Uiso   1.00
H446   H     0.20195   0.67586   0.46818   0.00000  Uiso   1.00
H447   H     0.02379   0.70903   0.46027   0.00000  Uiso   1.00
H448   H     0.09113   0.60093   0.61484   0.00000  Uiso   1.00
H449   H     0.30633   0.67617   0.40320   0.00000  Uiso   1.00
H450   H     0.93065   0.74611   0.38653   0.00000  Uiso   1.00
H451   H     0.07266   0.51814   0.71247   0.00000  Uiso   1.00
O452   O     0.35937   0.62011   0.31377   0.00000  Uiso   1.00
O453   O     0.86649   0.71186   0.29191   0.00000  Uiso   1.00
O454   O     0.05280   0.41277   0.71954   0.00000  Uiso   1.00
N455   N     0.27725   0.57392   0.31883   0.00000  Uiso   1.00
N456   N     0.92602   0.63931   0.30323   0.00000  Uiso   1.00
N457   N     0.05876   0.42618   0.60796   0.00000  Uiso   1.00
N458   N     0.28835   0.64412   0.38231   0.00000  Uiso   1.00
N459   N     0.93712   0.70951   0.36671   0.00000  Uiso   1.00
N460   N     0.06987   0.49639   0.67144   0.00000  Uiso   1.00
C461   C     0.91361   0.45972   0.40443   0.00000  Uiso   1.00
C462   C     0.85829   0.43330   0.39636   0.00000  Uiso   1.00
C463   C     0.81797   0.45018   0.35421   0.00000  Uiso   1.00
C464   C     0.77024   0.42060   0.35403   0.00000  Uiso   1.00
C465   C     0.68544   0.38638   0.33531   0.00000  Uiso   1.00
C466   C     0.95509   0.41527   0.39205   0.00000  Uiso   1.00
C467   C     0.99616   0.41700   0.34628   0.00000  Uiso   1.00
C468   C     0.02992   0.37225   0.34249   0.00000  Uiso   1.00
C469   C     0.09542   0.31006   0.31711   0.00000  Uiso   1.00
C470   C     0.91849   0.47401   0.47603   0.00000  Uiso   1.00
C471   C     0.92881   0.52513   0.50088   0.00000  Uiso   1.00
C472   C     0.93178   0.52983   0.56780   0.00000  Uiso   1.00
C473   C     0.94046   0.55884   0.67281   0.00000  Uiso   1.00
C474   C     0.90055   0.37716   0.47908   0.00000  Uiso   1.00
C475   C     0.85120   0.38845   0.43691   0.00000  Uiso   1.00
C476   C     0.80352   0.35884   0.43680   0.00000  Uiso   1.00
C477   C     0.76314   0.37568   0.39465   0.00000  Uiso   1.00
C478   C     0.94800   0.37043   0.43260   0.00000  Uiso   1.00
C479   C     0.98171   0.32566   0.42888   0.00000  Uiso   1.00
C480   C     0.02282   0.32732   0.38311   0.00000  Uiso   1.00
C481   C     0.91140   0.42917   0.51658   0.00000  Uiso   1.00
C482   C     0.91436   0.43379   0.58348   0.00000  Uiso   1.00
C483   C     0.92467   0.48490   0.60842   0.00000  Uiso   1.00
H484   H     0.91913   0.49463   0.37286   0.00000  Uiso   1.00
H485   H     0.82348   0.48489   0.32283   0.00000  Uiso   1.00
H486   H     0.00164   0.45171   0.31492   0.00000  Uiso   1.00
H487   H     0.93430   0.55982   0.46949   0.00000  Uiso   1.00
H488   H     0.71430   0.45429   0.28522   0.00000  Uiso   1.00
H489   H     0.08998   0.38436   0.26855   0.00000  Uiso   1.00
H490   H     0.94798   0.61233   0.59450   0.00000  Uiso   1.00
H491   H     0.89503   0.34224   0.51065   0.00000  Uiso   1.00
H492   H     0.79805   0.32414   0.46818   0.00000  Uiso   1.00
H493   H     0.97621   0.29097   0.46027   0.00000  Uiso   1.00
H494   H     0.90887   0.39907   0.61484   0.00000  Uiso   1.00
H495   H     0.69367   0.32383   0.40320   0.00000  Uiso   1.00
H496   H     0.06935   0.25389   0.38653   0.00000  Uiso   1.00
H497   H     0.92734   0.48186   0.71247   0.00000  Uiso   1.00
O498   O     0.64063   0.37989   0.31377   0.00000  Uiso   1.00
O499   O     0.13351   0.28814   0.29191   0.00000  Uiso   1.00
O500   O     0.94720   0.58723   0.71954   0.00000  Uiso   1.00
N501   N     0.72275   0.42608   0.31883   0.00000  Uiso   1.00
N502   N     0.07398   0.36069   0.30323   0.00000  Uiso   1.00
N503   N     0.94124   0.57382   0.60796   0.00000  Uiso   1.00
N504   N     0.71165   0.35588   0.38231   0.00000  Uiso   1.00
N505   N     0.06288   0.29049   0.36671   0.00000  Uiso   1.00
N506   N     0.93013   0.50361   0.67144   0.00000  Uiso   1.00
C507   C     0.41361   0.95972   0.90443   0.00000  Uiso   1.00
C508   C     0.35829   0.93330   0.89636   0.00000  Uiso   1.00
C509   C     0.31797   0.95018   0.85421   0.00000  Uiso   1.00
C510   C     0.27024   0.92060   0.85403   0.00000  Uiso   1.00
C511   C     0.18544   0.88638   0.83531   0.00000  Uiso   1.00
C512   C     0.45509   0.91527   0.89205   0.00000  Uiso   1.00
C513   C     0.49616   0.91700   0.84628   0.00000  Uiso   1.00
C514   C     0.52992   0.87225   0.84249   0.00000  Uiso   1.00
C515   C     0.59542   0.81006   0.81711   0.00000  Uiso   1.00
C516   C     0.41849   0.97401   0.97603   0.00000  Uiso   1.00
C517   C     0.42881   0.02513   0.00088   0.00000  Uiso   1.00
C518   C     0.43178   0.02983   0.06780   0.00000  Uiso   1.00
C519   C     0.44046   0.05884   0.17281   0.00000  Uiso   1.00
C520   C     0.40055   0.87716   0.97908   0.00000  Uiso   1.00
C521   C     0.35120   0.88845   0.93691   0.00000  Uiso   1.00
C522   C     0.30352   0.85884   0.93680   0.00000  Uiso   1.00
C523   C     0.26314   0.87568   0.89465   0.00000  Uiso   1.00
C524   C     0.44800   0.87043   0.93260   0.00000  Uiso   1.00
C525   C     0.48171   0.82566   0.92888   0.00000  Uiso   1.00
C526   C     0.52282   0.82732   0.88311   0.00000  Uiso   1.00
C527   C     0.41140   0.92917   0.01658   0.00000  Uiso   1.00
C528   C     0.41436   0.93379   0.08348   0.00000  Uiso   1.00
C529   C     0.42467   0.98490   0.10842   0.00000  Uiso   1.00
H530   H     0.41913   0.99463   0.87286   0.00000  Uiso   1.00
H531   H     0.32348   0.98489   0.82283   0.00000  Uiso   1.00
H532   H     0.50164   0.95171   0.81492   0.00000  Uiso   1.00
H533   H     0.43430   0.05982   0.96949   0.00000  Uiso   1.00
H534   H     0.21430   0.95429   0.78522   0.00000  Uiso   1.00
H535   H     0.58998   0.88436   0.76855   0.00000  Uiso   1.00
H536   H     0.44798   0.11233   0.09450   0.00000  Uiso   1.00
H537   H     0.39503   0.84224   0.01065   0.00000  Uiso   1.00
H538   H     0.29805   0.82414   0.96818   0.00000  Uiso   1.00
H539   H     0.47621   0.79097   0.96027   0.00000  Uiso   1.00
H540   H     0.40887   0.89907   0.11484   0.00000  Uiso   1.00
H541   H     0.19367   0.82383   0.90320   0.00000  Uiso   1.00
H542   H     0.56935   0.75389   0.88653   0.00000  Uiso   1.00
H543   H     0.42734   0.98186   0.21247   0.00000  Uiso   1.00
O544   O     0.14063   0.87989   0.81377   0.00000  Uiso   1.00
O545   O     0.63351   0.78814   0.79191   0.00000  Uiso   1.00
O546   O     0.44720   0.08723   0.21954   0.00000  Uiso   1.00
N547   N     0.22275   0.92608   0.81883   0.00000  Uiso   1.00
N548   N     0.57398   0.86069   0.80323   0.00000  Uiso   1.00
N549   N     0.44124   0.07382   0.10796   0.00000  Uiso   1.00
N550   N     0.21165   0.85588   0.88231   0.00000  Uiso   1.00
N551   N     0.56288   0.79049   0.86671   0.00000  Uiso   1.00
N552   N     0.43013   0.00361   0.17144   0.00000  Uiso   1.00
C553   C     0.45972   0.58639   0.65443   0.00000  Uiso   1.00
C554   C     0.43330   0.64171   0.64636   0.00000  Uiso   1.00
C555   C     0.45018   0.68203   0.60421   0.00000  Uiso   1.00
C556   C     0.42060   0.72976   0.60403   0.00000  Uiso   1.00
C557   C     0.38638   0.81456   0.58531   0.00000  Uiso   1.00
C558   C     0.41527   0.54491   0.64205   0.00000  Uiso   1.00
C559   C     0.41700   0.50384   0.59628   0.00000  Uiso   1.00
C560   C     0.37225   0.47008   0.59249   0.00000  Uiso   1.00
C561   C     0.31006   0.40458   0.56711   0.00000  Uiso   1.00
C562   C     0.47401   0.58151   0.72603   0.00000  Uiso   1.00
C563   C     0.52513   0.57119   0.75088   0.00000  Uiso   1.00
C564   C     0.52983   0.56822   0.81780   0.00000  Uiso   1.00
C565   C     0.55884   0.55954   0.92281   0.00000  Uiso   1.00
C566   C     0.37716   0.59945   0.72908   0.00000  Uiso   1.00
C567   C     0.38845   0.64880   0.68691   0.00000  Uiso   1.00
C568   C     0.35884   0.69648   0.68680   0.00000  Uiso   1.00
C569   C     0.37568   0.73686   0.64465   0.00000  Uiso   1.00
C570   C     0.37043   0.55200   0.68260   0.00000  Uiso   1.00
C571   C     0.32566   0.51829   0.67888   0.00000  Uiso   1.00
C572   C     0.32732   0.47718   0.63311   0.00000  Uiso   1.00
C573   C     0.42917   0.58860   0.76658   0.00000  Uiso   1.00
C574   C     0.43379   0.58564   0.83348   0.00000  Uiso   1.00
C575   C     0.48490   0.57533   0.85842   0.00000  Uiso   1.00
H576   H     0.49463   0.58087   0.62286   0.00000  Uiso   1.00
H577   H     0.48489   0.67652   0.57283   0.00000  Uiso   1.00
H578   H     0.45171   0.49836   0.56492   0.00000  Uiso   1.00
H579   H     0.55982   0.56570   0.71949   0.00000  Uiso   1.00
H580   H     0.45429   0.78570   0.53522   0.00000  Uiso   1.00
H581   H     0.38436   0.41002   0.51855   0.00000  Uiso   1.00
H582   H     0.61233   0.55202   0.84450   0.00000  Uiso   1.00
H583   H     0.34224   0.60497   0.76065   0.00000  Uiso   1.00
H584   H     0.32414   0.70195   0.71818   0.00000  Uiso   1.00
H585   H     0.29097   0.52379   0.71027   0.00000  Uiso   1.00
H586   H     0.39907   0.59113   0.86484   0.00000  Uiso   1.00
H587   H     0.32383   0.80633   0.65320   0.00000  Uiso   1.00
H588   H     0.25389   0.43065   0.63653   0.00000  Uiso   1.00
H589   H     0.48186   0.57266   0.96247   0.00000  Uiso   1.00
O590   O     0.37989   0.85937   0.56377   0.00000  Uiso   1.00
O591   O     0.28814   0.36649   0.54191   0.00000  Uiso   1.00
O592   O     0.58723   0.55280   0.96954   0.00000  Uiso   1.00
N593   N     0.42608   0.77725   0.56883   0.00000  Uiso   1.00
N594   N     0.36069   0.42602   0.55323   0.00000  Uiso   1.00
N595   N     0.57382   0.55876   0.85796   0.00000  Uiso   1.00
N596   N     0.35588   0.78835   0.63231   0.00000  Uiso   1.00
N597   N     0.29049   0.43712   0.61671   0.00000  Uiso   1.00
N598   N     0.50361   0.56987   0.92144   0.00000  Uiso   1.00
C599   C     0.95972   0.08639   0.15443   0.00000  Uiso   1.00
C600   C     0.93330   0.14171   0.14636   0.00000  Uiso   1.00
C601   C     0.95018   0.18203   0.10421   0.00000  Uiso   1.00
C602   C     0.92060   0.22976   0.10403   0.00000  Uiso   1.00
C603   C     0.88638   0.31456   0.08531   0.00000  Uiso   1.00
C604   C     0.91527   0.04491   0.14205   0.00000  Uiso   1.00
C605   C     0.91700   0.00384   0.09628   0.00000  Uiso   1.00
C606   C     0.87225   0.97008   0.09249   0.00000  Uiso   1.00
C607   C     0.81006   0.90458   0.06711   0.00000  Uiso   1.00
C608   C     0.97401   0.08151   0.22603   0.00000  Uiso   1.00
C609   C     0.02513   0.07119   0.25088   0.00000  Uiso   1.00
C610   C     0.02983   0.06822   0.31780   0.00000  Uiso   1.00
C611   C     0.05884   0.05954   0.42281   0.00000  Uiso   1.00
C612   C     0.87716   0.09945   0.22908   0.00000  Uiso   1.00
C613   C     0.88845   0.14880   0.18691   0.00000  Uiso   1.00
C614   C     0.85884   0.19648   0.18680   0.00000  Uiso   1.00
C615   C     0.87568   0.23686   0.14465   0.00000  Uiso   1.00
C616   C     0.87043   0.05200   0.18260   0.00000  Uiso   1.00
C617   C     0.82566   0.01829   0.17888   0.00000  Uiso   1.00
C618   C     0.82732   0.97718   0.13311   0.00000  Uiso   1.00
C619   C     0.92917   0.08860   0.26658   0.00000  Uiso   1.00
C620   C     0.93379   0.08564   0.33348   0.00000  Uiso   1.00
C621   C     0.98490   0.07533   0.35842   0.00000  Uiso   1.00
H622   H     0.99463   0.08087   0.12286   0.00000  Uiso   1.00
H623   H     0.98489   0.17652   0.07283   0.00000  Uiso   1.00
H624   H     0.95171   0.99836   0.06492   0.00000  Uiso   1.00
H625   H     0.05982   0.06570   0.21949   0.00000  Uiso   1.00
H626   H     0.95429   0.28570   0.03522   0.00000  Uiso   1.00
H627   H     0.88436   0.91002   0.01855   0.00000  Uiso   1.00
H628   H     0.11233   0.05202   0.34450   0.00000  Uiso   1.00
H629   H     0.84224   0.10497   0.26065   0.00000  Uiso   1.00
H630   H     0.82414   0.20195   0.21818   0.00000  Uiso   1.00
H631   H     0.79097   0.02379   0.21027   0.00000  Uiso   1.00
H632   H     0.89907   0.09113   0.36484   0.00000  Uiso   1.00
H633   H     0.82383   0.30633   0.15320   0.00000  Uiso   1.00
H634   H     0.75389   0.93065   0.13653   0.00000  Uiso   1.00
H635   H     0.98186   0.07266   0.46247   0.00000  Uiso   1.00
O636   O     0.87989   0.35937   0.06377   0.00000  Uiso   1.00
O637   O     0.78814   0.86649   0.04191   0.00000  Uiso   1.00
O638   O     0.08723   0.05280   0.46954   0.00000  Uiso   1.00
N639   N     0.92608   0.27725   0.06883   0.00000  Uiso   1.00
N640   N     0.86069   0.92602   0.05323   0.00000  Uiso   1.00
N641   N     0.07382   0.05876   0.35796   0.00000  Uiso   1.00
N642   N     0.85588   0.28835   0.13231   0.00000  Uiso   1.00
N643   N     0.79049   0.93712   0.11671   0.00000  Uiso   1.00
N644   N     0.00361   0.06987   0.42144   0.00000  Uiso   1.00
C645   C     0.04028   0.91361   0.15443   0.00000  Uiso   1.00
C646   C     0.06670   0.85829   0.14636   0.00000  Uiso   1.00
C647   C     0.04982   0.81797   0.10421   0.00000  Uiso   1.00
C648   C     0.07940   0.77024   0.10403   0.00000  Uiso   1.00
C649   C     0.11362   0.68544   0.08531   0.00000  Uiso   1.00
C650   C     0.08473   0.95509   0.14205   0.00000  Uiso   1.00
C651   C     0.08300   0.99616   0.09628   0.00000  Uiso   1.00
C652   C     0.12775   0.02992   0.09249   0.00000  Uiso   1.00
C653   C     0.18994   0.09542   0.06711   0.00000  Uiso   1.00
C654   C     0.02599   0.91849   0.22603   0.00000  Uiso   1.00
C655   C     0.97487   0.92881   0.25088   0.00000  Uiso   1.00
C656   C     0.97017   0.93178   0.31780   0.00000  Uiso   1.00
C657   C     0.94116   0.94046   0.42281   0.00000  Uiso   1.00
C658   C     0.12284   0.90055   0.22908   0.00000  Uiso   1.00
C659   C     0.11155   0.85120   0.18691   0.00000  Uiso   1.00
C660   C     0.14116   0.80352   0.18680   0.00000  Uiso   1.00
C661   C     0.12432   0.76314   0.14465   0.00000  Uiso   1.00
C662   C     0.12957   0.94800   0.18260   0.00000  Uiso   1.00
C663   C     0.17434   0.98171   0.17888   0.00000  Uiso   1.00
C664   C     0.17268   0.02282   0.13311   0.00000  Uiso   1.00
C665   C     0.07083   0.91140   0.26658   0.00000  Uiso   1.00
C666   C     0.06621   0.91436   0.33348   0.00000  Uiso   1.00
C667   C     0.01510   0.92467   0.35842   0.00000  Uiso   1.00
H668   H     0.00537   0.91913   0.12286   0.00000  Uiso   1.00
H669   H     0.01511   0.82348   0.07283   0.00000  Uiso   1.00
H670   H     0.04829   0.00164   0.06492   0.00000  Uiso   1.00
H671   H     0.94018   0.93430   0.21949   0.00000  Uiso   1.00
H672   H     0.04571   0.71430   0.03522   0.00000  Uiso   1.00
H673   H     0.11564   0.08998   0.01855   0.00000  Uiso   1.00
H674   H     0.88767   0.94798   0.34450   0.00000  Uiso   1.00
H675   H     0.15776   0.89503   0.26065   0.00000  Uiso   1.00
H676   H     0.17586   0.79805   0.21818   0.00000  Uiso   1.00
H677   H     0.20903   0.97621   0.21027   0.00000  Uiso   1.00
H678   H     0.10093   0.90887   0.36484   0.00000  Uiso   1.00
H679   H     0.17617   0.69367   0.15320   0.00000  Uiso   1.00
H680   H     0.24611   0.06935   0.13653   0.00000  Uiso   1.00
H681   H     0.01814   0.92734   0.46247   0.00000  Uiso   1.00
O682   O     0.12011   0.64063   0.06377   0.00000  Uiso   1.00
O683   O     0.21186   0.13351   0.04191   0.00000  Uiso   1.00
O684   O     0.91277   0.94720   0.46954   0.00000  Uiso   1.00
N685   N     0.07392   0.72275   0.06883   0.00000  Uiso   1.00
N686   N     0.13931   0.07398   0.05323   0.00000  Uiso   1.00
N687   N     0.92618   0.94124   0.35796   0.00000  Uiso   1.00
N688   N     0.14412   0.71165   0.13231   0.00000  Uiso   1.00
N689   N     0.20951   0.06288   0.11671   0.00000  Uiso   1.00
N690   N     0.99639   0.93013   0.42144   0.00000  Uiso   1.00
C691   C     0.54028   0.41361   0.65443   0.00000  Uiso   1.00
C692   C     0.56670   0.35829   0.64636   0.00000  Uiso   1.00
C693   C     0.54982   0.31797   0.60421   0.00000  Uiso   1.00
C694   C     0.57940   0.27024   0.60403   0.00000  Uiso   1.00
C695   C     0.61362   0.18544   0.58531   0.00000  Uiso   1.00
C696   C     0.58473   0.45509   0.64205   0.00000  Uiso   1.00
C697   C     0.58300   0.49616   0.59628   0.00000  Uiso   1.00
C698   C     0.62775   0.52992   0.59249   0.00000  Uiso   1.00
C699   C     0.68994   0.59542   0.56711   0.00000  Uiso   1.00
C700   C     0.52599   0.41849   0.72603   0.00000  Uiso   1.00
C701   C     0.47487   0.42881   0.75088   0.00000  Uiso   1.00
C702   C     0.47017   0.43178   0.81780   0.00000  Uiso   1.00
C703   C     0.44116   0.44046   0.92281   0.00000  Uiso   1.00
C704   C     0.62284   0.40055   0.72908   0.00000  Uiso   1.00
C705   C     0.61155   0.35120   0.68691   0.00000  Uiso   1.00
C706   C     0.64116   0.30352   0.68680   0.00000  Uiso   1.00
C707   C     0.62432   0.26314   0.64465   0.00000  Uiso   1.00
C708   C     0.62957   0.44800   0.68260   0.00000  Uiso   1.00
C709   C     0.67434   0.48171   0.67888   0.00000  Uiso   1.00
C710   C     0.67268   0.52282   0.63311   0.00000  Uiso   1.00
C711   C     0.57083   0.41140   0.76658   0.00000  Uiso   1.00
C712   C     0.56621   0.41436   0.83348   0.00000  Uiso   1.00
C713   C     0.51510   0.42467   0.85842   0.00000  Uiso   1.00
H714   H     0.50537   0.41913   0.62286   0.00000  Uiso   1.00
H715   H     0.51511   0.32348   0.57283   0.00000  Uiso   1.00
H716   H     0.54829   0.50164   0.56492   0.00000  Uiso   1.00
H717   H     0.44018   0.43430   0.71949   0.00000  Uiso   1.00
H718   H     0.54571   0.21430   0.53522   0.00000  Uiso   1.00
H719   H     0.61564   0.58998   0.51855   0.00000  Uiso   1.00
H720   H     0.38767   0.44798   0.84450   0.00000  Uiso   1.00
H721   H     0.65776   0.39503   0.76065   0.00000  Uiso   1.00
H722   H     0.67586   0.29805   0.71818   0.00000  Uiso   1.00
H723   H     0.70903   0.47621   0.71027   0.00000  Uiso   1.00
H724   H     0.60093   0.40887   0.86484   0.00000  Uiso   1.00
H725   H     0.67617   0.19367   0.65320   0.00000  Uiso   1.00
H726   H     0.74611   0.56935   0.63653   0.00000  Uiso   1.00
H727   H     0.51814   0.42734   0.96247   0.00000  Uiso   1.00
O728   O     0.62011   0.14063   0.56377   0.00000  Uiso   1.00
O729   O     0.71186   0.63351   0.54191   0.00000  Uiso   1.00
O730   O     0.41277   0.44720   0.96954   0.00000  Uiso   1.00
N731   N     0.57392   0.22275   0.56883   0.00000  Uiso   1.00
N732   N     0.63931   0.57398   0.55323   0.00000  Uiso   1.00
N733   N     0.42618   0.44124   0.85796   0.00000  Uiso   1.00
N734   N     0.64412   0.21165   0.63231   0.00000  Uiso   1.00
N735   N     0.70951   0.56288   0.61671   0.00000  Uiso   1.00
N736   N     0.49639   0.43013   0.92144   0.00000  Uiso   1.00
