data_job_01618
_audit_creation_date              2018-12-19
_audit_creation_method            'Materials Studio'
_symmetry_space_group_name_H-M    'P1'
_symmetry_Int_Tables_number       1
_symmetry_cell_setting            triclinic
loop_
_symmetry_equiv_pos_as_xyz
  x,y,z
_cell_length_a                    28.9350
_cell_length_b                    28.9350
_cell_length_c                    13.3924
_cell_angle_alpha                 90.0000
_cell_angle_beta                  90.0000
_cell_angle_gamma                 90.0000
loop_
_atom_site_label
_atom_site_type_symbol
_atom_site_fract_x
_atom_site_fract_y
_atom_site_fract_z
_atom_site_U_iso_or_equiv
_atom_site_adp_type
_atom_site_occupancy
C1     C     0.38931   0.71593   0.48333   0.00000  Uiso   1.00
C2     C     0.39804   0.73198   0.37653   0.00000  Uiso   1.00
C3     C     0.42478   0.70908   0.30615   0.00000  Uiso   1.00
C4     C     0.42850   0.72941   0.21259   0.00000  Uiso   1.00
C5     C     0.44546   0.74799   0.05015   0.00000  Uiso   1.00
C6     C     0.40489   0.75551   0.55056   0.00000  Uiso   1.00
C7     C     0.43736   0.75239   0.62652   0.00000  Uiso   1.00
C8     C     0.44684   0.79254   0.67948   0.00000  Uiso   1.00
C9     C     0.47440   0.84765   0.78729   0.00000  Uiso   1.00
C10    C     0.33697   0.71297   0.49482   0.00000  Uiso   1.00
C11    C     0.31233   0.67408   0.52393   0.00000  Uiso   1.00
C12    C     0.26463   0.67841   0.52998   0.00000  Uiso   1.00
C13    C     0.18673   0.66746   0.55123   0.00000  Uiso   1.00
C14    C     0.34839   0.79278   0.44234   0.00000  Uiso   1.00
C15    C     0.37582   0.77372   0.35427   0.00000  Uiso   1.00
C16    C     0.37950   0.79410   0.26079   0.00000  Uiso   1.00
C17    C     0.40623   0.77123   0.19028   0.00000  Uiso   1.00
C18    C     0.38266   0.79725   0.52830   0.00000  Uiso   1.00
C19    C     0.39209   0.83741   0.58117   0.00000  Uiso   1.00
C20    C     0.42457   0.83436   0.65718   0.00000  Uiso   1.00
C21    C     0.31473   0.75471   0.47255   0.00000  Uiso   1.00
C22    C     0.26706   0.75910   0.47857   0.00000  Uiso   1.00
C23    C     0.24236   0.72023   0.50768   0.00000  Uiso   1.00
H24    H     0.40662   0.68344   0.50067   0.00000  Uiso   1.00
H25    H     0.44198   0.67678   0.32341   0.00000  Uiso   1.00
H26    H     0.45456   0.72009   0.64374   0.00000  Uiso   1.00
H27    H     0.32955   0.64179   0.54115   0.00000  Uiso   1.00
H28    H     0.47139   0.68781   0.11707   0.00000  Uiso   1.00
H29    H     0.49790   0.77912   0.79253   0.00000  Uiso   1.00
H30    H     0.23430   0.61401   0.57621   0.00000  Uiso   1.00
H31    H     0.33108   0.82528   0.42501   0.00000  Uiso   1.00
H32    H     0.36229   0.82640   0.24358   0.00000  Uiso   1.00
H33    H     0.37488   0.86971   0.56392   0.00000  Uiso   1.00
H34    H     0.24987   0.79141   0.46133   0.00000  Uiso   1.00
H35    H     0.40672   0.80925   0.05229   0.00000  Uiso   1.00
H36    H     0.43323   0.90056   0.72775   0.00000  Uiso   1.00
H37    H     0.16962   0.73545   0.51143   0.00000  Uiso   1.00
O38    O     0.46096   0.74671   0.96671   0.00000  Uiso   1.00
O39    O     0.49574   0.86651   0.85290   0.00000  Uiso   1.00
O40    O     0.14990   0.64989   0.56909   0.00000  Uiso   1.00
N41    N     0.45188   0.71623   0.12672   0.00000  Uiso   1.00
N42    N     0.47667   0.80161   0.75822   0.00000  Uiso   1.00
N43    N     0.23022   0.64725   0.55601   0.00000  Uiso   1.00
N44    N     0.41708   0.78157   0.09185   0.00000  Uiso   1.00
N45    N     0.44187   0.86695   0.72336   0.00000  Uiso   1.00
N46    N     0.19542   0.71259   0.52115   0.00000  Uiso   1.00
C47    C     0.88931   0.21593   0.98333   0.00000  Uiso   1.00
C48    C     0.89804   0.23198   0.87653   0.00000  Uiso   1.00
C49    C     0.92478   0.20908   0.80615   0.00000  Uiso   1.00
C50    C     0.92850   0.22941   0.71259   0.00000  Uiso   1.00
C51    C     0.94546   0.24799   0.55015   0.00000  Uiso   1.00
C52    C     0.90489   0.25551   0.05056   0.00000  Uiso   1.00
C53    C     0.93736   0.25239   0.12652   0.00000  Uiso   1.00
C54    C     0.94684   0.29254   0.17948   0.00000  Uiso   1.00
C55    C     0.97440   0.34765   0.28729   0.00000  Uiso   1.00
C56    C     0.83697   0.21297   0.99482   0.00000  Uiso   1.00
C57    C     0.81233   0.17408   0.02393   0.00000  Uiso   1.00
C58    C     0.76463   0.17841   0.02998   0.00000  Uiso   1.00
C59    C     0.68673   0.16746   0.05123   0.00000  Uiso   1.00
C60    C     0.84839   0.29278   0.94234   0.00000  Uiso   1.00
C61    C     0.87582   0.27372   0.85427   0.00000  Uiso   1.00
C62    C     0.87950   0.29410   0.76079   0.00000  Uiso   1.00
C63    C     0.90623   0.27123   0.69028   0.00000  Uiso   1.00
C64    C     0.88266   0.29725   0.02830   0.00000  Uiso   1.00
C65    C     0.89209   0.33741   0.08117   0.00000  Uiso   1.00
C66    C     0.92457   0.33436   0.15718   0.00000  Uiso   1.00
C67    C     0.81473   0.25471   0.97255   0.00000  Uiso   1.00
C68    C     0.76706   0.25910   0.97857   0.00000  Uiso   1.00
C69    C     0.74236   0.22023   0.00768   0.00000  Uiso   1.00
H70    H     0.90662   0.18344   0.00067   0.00000  Uiso   1.00
H71    H     0.94198   0.17678   0.82341   0.00000  Uiso   1.00
H72    H     0.95456   0.22009   0.14374   0.00000  Uiso   1.00
H73    H     0.82955   0.14179   0.04115   0.00000  Uiso   1.00
H74    H     0.97139   0.18781   0.61707   0.00000  Uiso   1.00
H75    H     0.99790   0.27912   0.29253   0.00000  Uiso   1.00
H76    H     0.73430   0.11401   0.07621   0.00000  Uiso   1.00
H77    H     0.83108   0.32528   0.92501   0.00000  Uiso   1.00
H78    H     0.86229   0.32640   0.74358   0.00000  Uiso   1.00
H79    H     0.87488   0.36971   0.06392   0.00000  Uiso   1.00
H80    H     0.74987   0.29141   0.96133   0.00000  Uiso   1.00
H81    H     0.90672   0.30925   0.55229   0.00000  Uiso   1.00
H82    H     0.93323   0.40056   0.22775   0.00000  Uiso   1.00
H83    H     0.66962   0.23545   0.01143   0.00000  Uiso   1.00
O84    O     0.96096   0.24671   0.46671   0.00000  Uiso   1.00
O85    O     0.99574   0.36651   0.35290   0.00000  Uiso   1.00
O86    O     0.64990   0.14989   0.06909   0.00000  Uiso   1.00
N87    N     0.95188   0.21623   0.62672   0.00000  Uiso   1.00
N88    N     0.97667   0.30161   0.25822   0.00000  Uiso   1.00
N89    N     0.73022   0.14725   0.05601   0.00000  Uiso   1.00
N90    N     0.91708   0.28157   0.59185   0.00000  Uiso   1.00
N91    N     0.94187   0.36695   0.22336   0.00000  Uiso   1.00
N92    N     0.69542   0.21259   0.02115   0.00000  Uiso   1.00
C93    C     0.11069   0.78407   0.98333   0.00000  Uiso   1.00
C94    C     0.10196   0.76802   0.87653   0.00000  Uiso   1.00
C95    C     0.07522   0.79092   0.80615   0.00000  Uiso   1.00
C96    C     0.07150   0.77059   0.71259   0.00000  Uiso   1.00
C97    C     0.05454   0.75201   0.55015   0.00000  Uiso   1.00
C98    C     0.09511   0.74449   0.05056   0.00000  Uiso   1.00
C99    C     0.06264   0.74761   0.12652   0.00000  Uiso   1.00
C100   C     0.05316   0.70746   0.17948   0.00000  Uiso   1.00
C101   C     0.02560   0.65235   0.28729   0.00000  Uiso   1.00
C102   C     0.16303   0.78703   0.99482   0.00000  Uiso   1.00
C103   C     0.18767   0.82592   0.02393   0.00000  Uiso   1.00
C104   C     0.23537   0.82159   0.02998   0.00000  Uiso   1.00
C105   C     0.31327   0.83254   0.05123   0.00000  Uiso   1.00
C106   C     0.15161   0.70722   0.94234   0.00000  Uiso   1.00
C107   C     0.12418   0.72628   0.85427   0.00000  Uiso   1.00
C108   C     0.12050   0.70590   0.76079   0.00000  Uiso   1.00
C109   C     0.09377   0.72877   0.69028   0.00000  Uiso   1.00
C110   C     0.11734   0.70275   0.02830   0.00000  Uiso   1.00
C111   C     0.10791   0.66259   0.08117   0.00000  Uiso   1.00
C112   C     0.07543   0.66564   0.15718   0.00000  Uiso   1.00
C113   C     0.18527   0.74529   0.97255   0.00000  Uiso   1.00
C114   C     0.23294   0.74090   0.97857   0.00000  Uiso   1.00
C115   C     0.25764   0.77977   0.00768   0.00000  Uiso   1.00
H116   H     0.09338   0.81656   0.00067   0.00000  Uiso   1.00
H117   H     0.05802   0.82322   0.82341   0.00000  Uiso   1.00
H118   H     0.04544   0.77991   0.14374   0.00000  Uiso   1.00
H119   H     0.17045   0.85821   0.04115   0.00000  Uiso   1.00
H120   H     0.02861   0.81219   0.61707   0.00000  Uiso   1.00
H121   H     0.00210   0.72088   0.29253   0.00000  Uiso   1.00
H122   H     0.26570   0.88599   0.07621   0.00000  Uiso   1.00
H123   H     0.16892   0.67472   0.92501   0.00000  Uiso   1.00
H124   H     0.13771   0.67360   0.74358   0.00000  Uiso   1.00
H125   H     0.12512   0.63029   0.06392   0.00000  Uiso   1.00
H126   H     0.25013   0.70859   0.96133   0.00000  Uiso   1.00
H127   H     0.09328   0.69075   0.55229   0.00000  Uiso   1.00
H128   H     0.06677   0.59944   0.22775   0.00000  Uiso   1.00
H129   H     0.33038   0.76455   0.01143   0.00000  Uiso   1.00
O130   O     0.03904   0.75329   0.46671   0.00000  Uiso   1.00
O131   O     0.00426   0.63349   0.35290   0.00000  Uiso   1.00
O132   O     0.35010   0.85011   0.06909   0.00000  Uiso   1.00
N133   N     0.04812   0.78377   0.62672   0.00000  Uiso   1.00
N134   N     0.02333   0.69839   0.25822   0.00000  Uiso   1.00
N135   N     0.26978   0.85275   0.05601   0.00000  Uiso   1.00
N136   N     0.08292   0.71843   0.59185   0.00000  Uiso   1.00
N137   N     0.05813   0.63305   0.22336   0.00000  Uiso   1.00
N138   N     0.30458   0.78741   0.02115   0.00000  Uiso   1.00
C139   C     0.61069   0.28407   0.48333   0.00000  Uiso   1.00
C140   C     0.60196   0.26802   0.37653   0.00000  Uiso   1.00
C141   C     0.57522   0.29092   0.30615   0.00000  Uiso   1.00
C142   C     0.57150   0.27059   0.21259   0.00000  Uiso   1.00
C143   C     0.55454   0.25201   0.05015   0.00000  Uiso   1.00
C144   C     0.59511   0.24449   0.55056   0.00000  Uiso   1.00
C145   C     0.56264   0.24761   0.62652   0.00000  Uiso   1.00
C146   C     0.55316   0.20746   0.67948   0.00000  Uiso   1.00
C147   C     0.52560   0.15235   0.78729   0.00000  Uiso   1.00
C148   C     0.66303   0.28703   0.49482   0.00000  Uiso   1.00
C149   C     0.68767   0.32592   0.52393   0.00000  Uiso   1.00
C150   C     0.73537   0.32159   0.52998   0.00000  Uiso   1.00
C151   C     0.81327   0.33254   0.55123   0.00000  Uiso   1.00
C152   C     0.65161   0.20722   0.44234   0.00000  Uiso   1.00
C153   C     0.62418   0.22628   0.35427   0.00000  Uiso   1.00
C154   C     0.62050   0.20590   0.26079   0.00000  Uiso   1.00
C155   C     0.59377   0.22877   0.19028   0.00000  Uiso   1.00
C156   C     0.61734   0.20275   0.52830   0.00000  Uiso   1.00
C157   C     0.60791   0.16259   0.58117   0.00000  Uiso   1.00
C158   C     0.57543   0.16564   0.65718   0.00000  Uiso   1.00
C159   C     0.68527   0.24529   0.47255   0.00000  Uiso   1.00
C160   C     0.73294   0.24090   0.47857   0.00000  Uiso   1.00
C161   C     0.75764   0.27977   0.50768   0.00000  Uiso   1.00
H162   H     0.59338   0.31656   0.50067   0.00000  Uiso   1.00
H163   H     0.55802   0.32322   0.32341   0.00000  Uiso   1.00
H164   H     0.54544   0.27991   0.64374   0.00000  Uiso   1.00
H165   H     0.67045   0.35821   0.54115   0.00000  Uiso   1.00
H166   H     0.52861   0.31219   0.11707   0.00000  Uiso   1.00
H167   H     0.50210   0.22088   0.79253   0.00000  Uiso   1.00
H168   H     0.76570   0.38599   0.57621   0.00000  Uiso   1.00
H169   H     0.66892   0.17472   0.42501   0.00000  Uiso   1.00
H170   H     0.63771   0.17360   0.24358   0.00000  Uiso   1.00
H171   H     0.62512   0.13029   0.56392   0.00000  Uiso   1.00
H172   H     0.75013   0.20859   0.46133   0.00000  Uiso   1.00
H173   H     0.59328   0.19075   0.05229   0.00000  Uiso   1.00
H174   H     0.56677   0.09944   0.72775   0.00000  Uiso   1.00
H175   H     0.83038   0.26455   0.51143   0.00000  Uiso   1.00
O176   O     0.53904   0.25329   0.96671   0.00000  Uiso   1.00
O177   O     0.50426   0.13349   0.85290   0.00000  Uiso   1.00
O178   O     0.85010   0.35011   0.56909   0.00000  Uiso   1.00
N179   N     0.54812   0.28377   0.12672   0.00000  Uiso   1.00
N180   N     0.52333   0.19839   0.75822   0.00000  Uiso   1.00
N181   N     0.76978   0.35275   0.55601   0.00000  Uiso   1.00
N182   N     0.58292   0.21843   0.09185   0.00000  Uiso   1.00
N183   N     0.55813   0.13305   0.72336   0.00000  Uiso   1.00
N184   N     0.80458   0.28741   0.52115   0.00000  Uiso   1.00
C185   C     0.28407   0.88931   0.73333   0.00000  Uiso   1.00
C186   C     0.26802   0.89804   0.62653   0.00000  Uiso   1.00
C187   C     0.29092   0.92478   0.55615   0.00000  Uiso   1.00
C188   C     0.27059   0.92850   0.46259   0.00000  Uiso   1.00
C189   C     0.25201   0.94546   0.30015   0.00000  Uiso   1.00
C190   C     0.24449   0.90489   0.80056   0.00000  Uiso   1.00
C191   C     0.24761   0.93736   0.87652   0.00000  Uiso   1.00
C192   C     0.20746   0.94684   0.92948   0.00000  Uiso   1.00
C193   C     0.15235   0.97440   0.03729   0.00000  Uiso   1.00
C194   C     0.28703   0.83697   0.74482   0.00000  Uiso   1.00
C195   C     0.32592   0.81233   0.77393   0.00000  Uiso   1.00
C196   C     0.32159   0.76463   0.77998   0.00000  Uiso   1.00
C197   C     0.33254   0.68673   0.80123   0.00000  Uiso   1.00
C198   C     0.20722   0.84839   0.69234   0.00000  Uiso   1.00
C199   C     0.22628   0.87582   0.60427   0.00000  Uiso   1.00
C200   C     0.20590   0.87950   0.51079   0.00000  Uiso   1.00
C201   C     0.22877   0.90623   0.44028   0.00000  Uiso   1.00
C202   C     0.20275   0.88266   0.77830   0.00000  Uiso   1.00
C203   C     0.16259   0.89209   0.83117   0.00000  Uiso   1.00
C204   C     0.16564   0.92457   0.90718   0.00000  Uiso   1.00
C205   C     0.24529   0.81473   0.72255   0.00000  Uiso   1.00
C206   C     0.24090   0.76706   0.72857   0.00000  Uiso   1.00
C207   C     0.27977   0.74236   0.75768   0.00000  Uiso   1.00
H208   H     0.31656   0.90662   0.75067   0.00000  Uiso   1.00
H209   H     0.32322   0.94198   0.57341   0.00000  Uiso   1.00
H210   H     0.27991   0.95456   0.89374   0.00000  Uiso   1.00
H211   H     0.35821   0.82955   0.79115   0.00000  Uiso   1.00
H212   H     0.31219   0.97139   0.36707   0.00000  Uiso   1.00
H213   H     0.22088   0.99790   0.04253   0.00000  Uiso   1.00
H214   H     0.38599   0.73430   0.82621   0.00000  Uiso   1.00
H215   H     0.17472   0.83108   0.67501   0.00000  Uiso   1.00
H216   H     0.17360   0.86229   0.49358   0.00000  Uiso   1.00
H217   H     0.13029   0.87488   0.81392   0.00000  Uiso   1.00
H218   H     0.20859   0.74987   0.71133   0.00000  Uiso   1.00
H219   H     0.19075   0.90672   0.30229   0.00000  Uiso   1.00
H220   H     0.09944   0.93323   0.97775   0.00000  Uiso   1.00
H221   H     0.26455   0.66962   0.76143   0.00000  Uiso   1.00
O222   O     0.25329   0.96096   0.21671   0.00000  Uiso   1.00
O223   O     0.13349   0.99574   0.10290   0.00000  Uiso   1.00
O224   O     0.35011   0.64990   0.81909   0.00000  Uiso   1.00
N225   N     0.28377   0.95188   0.37672   0.00000  Uiso   1.00
N226   N     0.19839   0.97667   0.00822   0.00000  Uiso   1.00
N227   N     0.35275   0.73022   0.80601   0.00000  Uiso   1.00
N228   N     0.21843   0.91708   0.34185   0.00000  Uiso   1.00
N229   N     0.13305   0.94187   0.97336   0.00000  Uiso   1.00
N230   N     0.28741   0.69542   0.77115   0.00000  Uiso   1.00
C231   C     0.78407   0.38931   0.23333   0.00000  Uiso   1.00
C232   C     0.76802   0.39804   0.12653   0.00000  Uiso   1.00
C233   C     0.79092   0.42478   0.05615   0.00000  Uiso   1.00
C234   C     0.77059   0.42850   0.96259   0.00000  Uiso   1.00
C235   C     0.75201   0.44546   0.80015   0.00000  Uiso   1.00
C236   C     0.74449   0.40489   0.30056   0.00000  Uiso   1.00
C237   C     0.74761   0.43736   0.37652   0.00000  Uiso   1.00
C238   C     0.70746   0.44684   0.42948   0.00000  Uiso   1.00
C239   C     0.65235   0.47440   0.53729   0.00000  Uiso   1.00
C240   C     0.78703   0.33697   0.24482   0.00000  Uiso   1.00
C241   C     0.82592   0.31233   0.27393   0.00000  Uiso   1.00
C242   C     0.82159   0.26463   0.27998   0.00000  Uiso   1.00
C243   C     0.83254   0.18673   0.30123   0.00000  Uiso   1.00
C244   C     0.70722   0.34839   0.19234   0.00000  Uiso   1.00
C245   C     0.72628   0.37582   0.10427   0.00000  Uiso   1.00
C246   C     0.70590   0.37950   0.01079   0.00000  Uiso   1.00
C247   C     0.72877   0.40623   0.94028   0.00000  Uiso   1.00
C248   C     0.70275   0.38266   0.27830   0.00000  Uiso   1.00
C249   C     0.66259   0.39209   0.33117   0.00000  Uiso   1.00
C250   C     0.66564   0.42457   0.40718   0.00000  Uiso   1.00
C251   C     0.74529   0.31473   0.22255   0.00000  Uiso   1.00
C252   C     0.74090   0.26706   0.22857   0.00000  Uiso   1.00
C253   C     0.77977   0.24236   0.25768   0.00000  Uiso   1.00
H254   H     0.81656   0.40662   0.25067   0.00000  Uiso   1.00
H255   H     0.82322   0.44198   0.07341   0.00000  Uiso   1.00
H256   H     0.77991   0.45456   0.39374   0.00000  Uiso   1.00
H257   H     0.85821   0.32955   0.29115   0.00000  Uiso   1.00
H258   H     0.81219   0.47139   0.86707   0.00000  Uiso   1.00
H259   H     0.72088   0.49790   0.54253   0.00000  Uiso   1.00
H260   H     0.88599   0.23430   0.32621   0.00000  Uiso   1.00
H261   H     0.67472   0.33108   0.17501   0.00000  Uiso   1.00
H262   H     0.67360   0.36229   0.99358   0.00000  Uiso   1.00
H263   H     0.63029   0.37488   0.31392   0.00000  Uiso   1.00
H264   H     0.70859   0.24987   0.21133   0.00000  Uiso   1.00
H265   H     0.69075   0.40672   0.80229   0.00000  Uiso   1.00
H266   H     0.59944   0.43323   0.47775   0.00000  Uiso   1.00
H267   H     0.76455   0.16962   0.26143   0.00000  Uiso   1.00
O268   O     0.75329   0.46096   0.71671   0.00000  Uiso   1.00
O269   O     0.63349   0.49574   0.60290   0.00000  Uiso   1.00
O270   O     0.85011   0.14990   0.31909   0.00000  Uiso   1.00
N271   N     0.78377   0.45188   0.87672   0.00000  Uiso   1.00
N272   N     0.69839   0.47667   0.50822   0.00000  Uiso   1.00
N273   N     0.85275   0.23022   0.30601   0.00000  Uiso   1.00
N274   N     0.71843   0.41708   0.84185   0.00000  Uiso   1.00
N275   N     0.63305   0.44187   0.47336   0.00000  Uiso   1.00
N276   N     0.78741   0.19542   0.27115   0.00000  Uiso   1.00
C277   C     0.21593   0.61069   0.23333   0.00000  Uiso   1.00
C278   C     0.23198   0.60196   0.12653   0.00000  Uiso   1.00
C279   C     0.20908   0.57522   0.05615   0.00000  Uiso   1.00
C280   C     0.22941   0.57150   0.96259   0.00000  Uiso   1.00
C281   C     0.24799   0.55454   0.80015   0.00000  Uiso   1.00
C282   C     0.25551   0.59511   0.30056   0.00000  Uiso   1.00
C283   C     0.25239   0.56264   0.37652   0.00000  Uiso   1.00
C284   C     0.29254   0.55316   0.42948   0.00000  Uiso   1.00
C285   C     0.34765   0.52560   0.53729   0.00000  Uiso   1.00
C286   C     0.21297   0.66303   0.24482   0.00000  Uiso   1.00
C287   C     0.17408   0.68767   0.27393   0.00000  Uiso   1.00
C288   C     0.17841   0.73537   0.27998   0.00000  Uiso   1.00
C289   C     0.16746   0.81327   0.30123   0.00000  Uiso   1.00
C290   C     0.29278   0.65161   0.19234   0.00000  Uiso   1.00
C291   C     0.27372   0.62418   0.10427   0.00000  Uiso   1.00
C292   C     0.29410   0.62050   0.01079   0.00000  Uiso   1.00
C293   C     0.27123   0.59377   0.94028   0.00000  Uiso   1.00
C294   C     0.29725   0.61734   0.27830   0.00000  Uiso   1.00
C295   C     0.33741   0.60791   0.33117   0.00000  Uiso   1.00
C296   C     0.33436   0.57543   0.40718   0.00000  Uiso   1.00
C297   C     0.25471   0.68527   0.22255   0.00000  Uiso   1.00
C298   C     0.25910   0.73294   0.22857   0.00000  Uiso   1.00
C299   C     0.22023   0.75764   0.25768   0.00000  Uiso   1.00
H300   H     0.18344   0.59338   0.25067   0.00000  Uiso   1.00
H301   H     0.17678   0.55802   0.07341   0.00000  Uiso   1.00
H302   H     0.22009   0.54544   0.39374   0.00000  Uiso   1.00
H303   H     0.14179   0.67045   0.29115   0.00000  Uiso   1.00
H304   H     0.18781   0.52861   0.86707   0.00000  Uiso   1.00
H305   H     0.27912   0.50210   0.54253   0.00000  Uiso   1.00
H306   H     0.11401   0.76570   0.32621   0.00000  Uiso   1.00
H307   H     0.32528   0.66892   0.17501   0.00000  Uiso   1.00
H308   H     0.32640   0.63771   0.99358   0.00000  Uiso   1.00
H309   H     0.36971   0.62512   0.31392   0.00000  Uiso   1.00
H310   H     0.29141   0.75013   0.21133   0.00000  Uiso   1.00
H311   H     0.30925   0.59328   0.80229   0.00000  Uiso   1.00
H312   H     0.40056   0.56677   0.47775   0.00000  Uiso   1.00
H313   H     0.23545   0.83038   0.26143   0.00000  Uiso   1.00
O314   O     0.24671   0.53904   0.71671   0.00000  Uiso   1.00
O315   O     0.36651   0.50426   0.60290   0.00000  Uiso   1.00
O316   O     0.14989   0.85010   0.31909   0.00000  Uiso   1.00
N317   N     0.21623   0.54812   0.87672   0.00000  Uiso   1.00
N318   N     0.30161   0.52333   0.50822   0.00000  Uiso   1.00
N319   N     0.14725   0.76978   0.30601   0.00000  Uiso   1.00
N320   N     0.28157   0.58292   0.84185   0.00000  Uiso   1.00
N321   N     0.36695   0.55813   0.47336   0.00000  Uiso   1.00
N322   N     0.21259   0.80458   0.27115   0.00000  Uiso   1.00
C323   C     0.71593   0.11069   0.73333   0.00000  Uiso   1.00
C324   C     0.73198   0.10196   0.62653   0.00000  Uiso   1.00
C325   C     0.70908   0.07522   0.55615   0.00000  Uiso   1.00
C326   C     0.72941   0.07150   0.46259   0.00000  Uiso   1.00
C327   C     0.74799   0.05454   0.30015   0.00000  Uiso   1.00
C328   C     0.75551   0.09511   0.80056   0.00000  Uiso   1.00
C329   C     0.75239   0.06264   0.87652   0.00000  Uiso   1.00
C330   C     0.79254   0.05316   0.92948   0.00000  Uiso   1.00
C331   C     0.84765   0.02560   0.03729   0.00000  Uiso   1.00
C332   C     0.71297   0.16303   0.74482   0.00000  Uiso   1.00
C333   C     0.67408   0.18767   0.77393   0.00000  Uiso   1.00
C334   C     0.67841   0.23537   0.77998   0.00000  Uiso   1.00
C335   C     0.66746   0.31327   0.80123   0.00000  Uiso   1.00
C336   C     0.79278   0.15161   0.69234   0.00000  Uiso   1.00
C337   C     0.77372   0.12418   0.60427   0.00000  Uiso   1.00
C338   C     0.79410   0.12050   0.51079   0.00000  Uiso   1.00
C339   C     0.77123   0.09377   0.44028   0.00000  Uiso   1.00
C340   C     0.79725   0.11734   0.77830   0.00000  Uiso   1.00
C341   C     0.83741   0.10791   0.83117   0.00000  Uiso   1.00
C342   C     0.83436   0.07543   0.90718   0.00000  Uiso   1.00
C343   C     0.75471   0.18527   0.72255   0.00000  Uiso   1.00
C344   C     0.75910   0.23294   0.72857   0.00000  Uiso   1.00
C345   C     0.72023   0.25764   0.75768   0.00000  Uiso   1.00
H346   H     0.68344   0.09338   0.75067   0.00000  Uiso   1.00
H347   H     0.67678   0.05802   0.57341   0.00000  Uiso   1.00
H348   H     0.72009   0.04544   0.89374   0.00000  Uiso   1.00
H349   H     0.64179   0.17045   0.79115   0.00000  Uiso   1.00
H350   H     0.68781   0.02861   0.36707   0.00000  Uiso   1.00
H351   H     0.77912   0.00210   0.04253   0.00000  Uiso   1.00
H352   H     0.61401   0.26570   0.82621   0.00000  Uiso   1.00
H353   H     0.82528   0.16892   0.67501   0.00000  Uiso   1.00
H354   H     0.82640   0.13771   0.49358   0.00000  Uiso   1.00
H355   H     0.86971   0.12512   0.81392   0.00000  Uiso   1.00
H356   H     0.79141   0.25013   0.71133   0.00000  Uiso   1.00
H357   H     0.80925   0.09328   0.30229   0.00000  Uiso   1.00
H358   H     0.90056   0.06677   0.97775   0.00000  Uiso   1.00
H359   H     0.73545   0.33038   0.76143   0.00000  Uiso   1.00
O360   O     0.74671   0.03904   0.21671   0.00000  Uiso   1.00
O361   O     0.86651   0.00426   0.10290   0.00000  Uiso   1.00
O362   O     0.64989   0.35010   0.81909   0.00000  Uiso   1.00
N363   N     0.71623   0.04812   0.37672   0.00000  Uiso   1.00
N364   N     0.80161   0.02333   0.00822   0.00000  Uiso   1.00
N365   N     0.64725   0.26978   0.80601   0.00000  Uiso   1.00
N366   N     0.78157   0.08292   0.34185   0.00000  Uiso   1.00
N367   N     0.86695   0.05813   0.97336   0.00000  Uiso   1.00
N368   N     0.71259   0.30458   0.77115   0.00000  Uiso   1.00
C369   C     0.61069   0.78407   0.76667   0.00000  Uiso   1.00
C370   C     0.60196   0.76802   0.87347   0.00000  Uiso   1.00
C371   C     0.57522   0.79092   0.94385   0.00000  Uiso   1.00
C372   C     0.57150   0.77059   0.03741   0.00000  Uiso   1.00
C373   C     0.55454   0.75201   0.19985   0.00000  Uiso   1.00
C374   C     0.59511   0.74449   0.69944   0.00000  Uiso   1.00
C375   C     0.56264   0.74761   0.62348   0.00000  Uiso   1.00
C376   C     0.55316   0.70746   0.57052   0.00000  Uiso   1.00
C377   C     0.52560   0.65235   0.46271   0.00000  Uiso   1.00
C378   C     0.66303   0.78703   0.75518   0.00000  Uiso   1.00
C379   C     0.68767   0.82592   0.72607   0.00000  Uiso   1.00
C380   C     0.73537   0.82159   0.72002   0.00000  Uiso   1.00
C381   C     0.81327   0.83254   0.69877   0.00000  Uiso   1.00
C382   C     0.65161   0.70722   0.80766   0.00000  Uiso   1.00
C383   C     0.62418   0.72628   0.89573   0.00000  Uiso   1.00
C384   C     0.62050   0.70590   0.98921   0.00000  Uiso   1.00
C385   C     0.59377   0.72877   0.05972   0.00000  Uiso   1.00
C386   C     0.61734   0.70275   0.72170   0.00000  Uiso   1.00
C387   C     0.60791   0.66259   0.66883   0.00000  Uiso   1.00
C388   C     0.57543   0.66564   0.59282   0.00000  Uiso   1.00
C389   C     0.68527   0.74529   0.77745   0.00000  Uiso   1.00
C390   C     0.73294   0.74090   0.77143   0.00000  Uiso   1.00
C391   C     0.75764   0.77977   0.74232   0.00000  Uiso   1.00
H392   H     0.59338   0.81656   0.74933   0.00000  Uiso   1.00
H393   H     0.55802   0.82322   0.92659   0.00000  Uiso   1.00
H394   H     0.54544   0.77991   0.60626   0.00000  Uiso   1.00
H395   H     0.67045   0.85821   0.70885   0.00000  Uiso   1.00
H396   H     0.52861   0.81219   0.13293   0.00000  Uiso   1.00
H397   H     0.50210   0.72088   0.45747   0.00000  Uiso   1.00
H398   H     0.76570   0.88599   0.67379   0.00000  Uiso   1.00
H399   H     0.66892   0.67472   0.82499   0.00000  Uiso   1.00
H400   H     0.63771   0.67360   0.00642   0.00000  Uiso   1.00
H401   H     0.62512   0.63029   0.68608   0.00000  Uiso   1.00
H402   H     0.75013   0.70859   0.78867   0.00000  Uiso   1.00
H403   H     0.59328   0.69075   0.19771   0.00000  Uiso   1.00
H404   H     0.56677   0.59944   0.52225   0.00000  Uiso   1.00
H405   H     0.83038   0.76455   0.73857   0.00000  Uiso   1.00
O406   O     0.53904   0.75329   0.28329   0.00000  Uiso   1.00
O407   O     0.50426   0.63349   0.39710   0.00000  Uiso   1.00
O408   O     0.85010   0.85011   0.68091   0.00000  Uiso   1.00
N409   N     0.54812   0.78377   0.12328   0.00000  Uiso   1.00
N410   N     0.52333   0.69839   0.49178   0.00000  Uiso   1.00
N411   N     0.76978   0.85275   0.69399   0.00000  Uiso   1.00
N412   N     0.58292   0.71843   0.15815   0.00000  Uiso   1.00
N413   N     0.55813   0.63305   0.52664   0.00000  Uiso   1.00
N414   N     0.80458   0.78741   0.72885   0.00000  Uiso   1.00
C415   C     0.11069   0.28407   0.26667   0.00000  Uiso   1.00
C416   C     0.10196   0.26802   0.37347   0.00000  Uiso   1.00
C417   C     0.07522   0.29092   0.44385   0.00000  Uiso   1.00
C418   C     0.07150   0.27059   0.53741   0.00000  Uiso   1.00
C419   C     0.05454   0.25201   0.69985   0.00000  Uiso   1.00
C420   C     0.09511   0.24449   0.19944   0.00000  Uiso   1.00
C421   C     0.06264   0.24761   0.12348   0.00000  Uiso   1.00
C422   C     0.05316   0.20746   0.07052   0.00000  Uiso   1.00
C423   C     0.02560   0.15235   0.96271   0.00000  Uiso   1.00
C424   C     0.16303   0.28703   0.25518   0.00000  Uiso   1.00
C425   C     0.18767   0.32592   0.22607   0.00000  Uiso   1.00
C426   C     0.23537   0.32159   0.22002   0.00000  Uiso   1.00
C427   C     0.31327   0.33254   0.19877   0.00000  Uiso   1.00
C428   C     0.15161   0.20722   0.30766   0.00000  Uiso   1.00
C429   C     0.12418   0.22628   0.39573   0.00000  Uiso   1.00
C430   C     0.12050   0.20590   0.48921   0.00000  Uiso   1.00
C431   C     0.09377   0.22877   0.55972   0.00000  Uiso   1.00
C432   C     0.11734   0.20275   0.22170   0.00000  Uiso   1.00
C433   C     0.10791   0.16259   0.16883   0.00000  Uiso   1.00
C434   C     0.07543   0.16564   0.09282   0.00000  Uiso   1.00
C435   C     0.18527   0.24529   0.27745   0.00000  Uiso   1.00
C436   C     0.23294   0.24090   0.27143   0.00000  Uiso   1.00
C437   C     0.25764   0.27977   0.24232   0.00000  Uiso   1.00
H438   H     0.09338   0.31656   0.24933   0.00000  Uiso   1.00
H439   H     0.05802   0.32322   0.42659   0.00000  Uiso   1.00
H440   H     0.04544   0.27991   0.10626   0.00000  Uiso   1.00
H441   H     0.17045   0.35821   0.20885   0.00000  Uiso   1.00
H442   H     0.02861   0.31219   0.63293   0.00000  Uiso   1.00
H443   H     0.00210   0.22088   0.95747   0.00000  Uiso   1.00
H444   H     0.26570   0.38599   0.17379   0.00000  Uiso   1.00
H445   H     0.16892   0.17472   0.32499   0.00000  Uiso   1.00
H446   H     0.13771   0.17360   0.50642   0.00000  Uiso   1.00
H447   H     0.12512   0.13029   0.18608   0.00000  Uiso   1.00
H448   H     0.25013   0.20859   0.28867   0.00000  Uiso   1.00
H449   H     0.09328   0.19075   0.69771   0.00000  Uiso   1.00
H450   H     0.06677   0.09944   0.02225   0.00000  Uiso   1.00
H451   H     0.33038   0.26455   0.23857   0.00000  Uiso   1.00
O452   O     0.03904   0.25329   0.78329   0.00000  Uiso   1.00
O453   O     0.00426   0.13349   0.89710   0.00000  Uiso   1.00
O454   O     0.35010   0.35011   0.18091   0.00000  Uiso   1.00
N455   N     0.04812   0.28377   0.62328   0.00000  Uiso   1.00
N456   N     0.02333   0.19839   0.99178   0.00000  Uiso   1.00
N457   N     0.26978   0.35275   0.19399   0.00000  Uiso   1.00
N458   N     0.08292   0.21843   0.65815   0.00000  Uiso   1.00
N459   N     0.05813   0.13305   0.02664   0.00000  Uiso   1.00
N460   N     0.30458   0.28741   0.22885   0.00000  Uiso   1.00
C461   C     0.88931   0.71593   0.26667   0.00000  Uiso   1.00
C462   C     0.89804   0.73198   0.37347   0.00000  Uiso   1.00
C463   C     0.92478   0.70908   0.44385   0.00000  Uiso   1.00
C464   C     0.92850   0.72941   0.53741   0.00000  Uiso   1.00
C465   C     0.94546   0.74799   0.69985   0.00000  Uiso   1.00
C466   C     0.90489   0.75551   0.19944   0.00000  Uiso   1.00
C467   C     0.93736   0.75239   0.12348   0.00000  Uiso   1.00
C468   C     0.94684   0.79254   0.07052   0.00000  Uiso   1.00
C469   C     0.97440   0.84765   0.96271   0.00000  Uiso   1.00
C470   C     0.83697   0.71297   0.25518   0.00000  Uiso   1.00
C471   C     0.81233   0.67408   0.22607   0.00000  Uiso   1.00
C472   C     0.76463   0.67841   0.22002   0.00000  Uiso   1.00
C473   C     0.68673   0.66746   0.19877   0.00000  Uiso   1.00
C474   C     0.84839   0.79278   0.30766   0.00000  Uiso   1.00
C475   C     0.87582   0.77372   0.39573   0.00000  Uiso   1.00
C476   C     0.87950   0.79410   0.48921   0.00000  Uiso   1.00
C477   C     0.90623   0.77123   0.55972   0.00000  Uiso   1.00
C478   C     0.88266   0.79725   0.22170   0.00000  Uiso   1.00
C479   C     0.89209   0.83741   0.16883   0.00000  Uiso   1.00
C480   C     0.92457   0.83436   0.09282   0.00000  Uiso   1.00
C481   C     0.81473   0.75471   0.27745   0.00000  Uiso   1.00
C482   C     0.76706   0.75910   0.27143   0.00000  Uiso   1.00
C483   C     0.74236   0.72023   0.24232   0.00000  Uiso   1.00
H484   H     0.90662   0.68344   0.24933   0.00000  Uiso   1.00
H485   H     0.94198   0.67678   0.42659   0.00000  Uiso   1.00
H486   H     0.95456   0.72009   0.10626   0.00000  Uiso   1.00
H487   H     0.82955   0.64179   0.20885   0.00000  Uiso   1.00
H488   H     0.97139   0.68781   0.63293   0.00000  Uiso   1.00
H489   H     0.99790   0.77912   0.95747   0.00000  Uiso   1.00
H490   H     0.73430   0.61401   0.17379   0.00000  Uiso   1.00
H491   H     0.83108   0.82528   0.32499   0.00000  Uiso   1.00
H492   H     0.86229   0.82640   0.50642   0.00000  Uiso   1.00
H493   H     0.87488   0.86971   0.18608   0.00000  Uiso   1.00
H494   H     0.74987   0.79141   0.28867   0.00000  Uiso   1.00
H495   H     0.90672   0.80925   0.69771   0.00000  Uiso   1.00
H496   H     0.93323   0.90056   0.02225   0.00000  Uiso   1.00
H497   H     0.66962   0.73545   0.23857   0.00000  Uiso   1.00
O498   O     0.96096   0.74671   0.78329   0.00000  Uiso   1.00
O499   O     0.99574   0.86651   0.89710   0.00000  Uiso   1.00
O500   O     0.64990   0.64989   0.18091   0.00000  Uiso   1.00
N501   N     0.95188   0.71623   0.62328   0.00000  Uiso   1.00
N502   N     0.97667   0.80161   0.99178   0.00000  Uiso   1.00
N503   N     0.73022   0.64725   0.19399   0.00000  Uiso   1.00
N504   N     0.91708   0.78157   0.65815   0.00000  Uiso   1.00
N505   N     0.94187   0.86695   0.02664   0.00000  Uiso   1.00
N506   N     0.69542   0.71259   0.22885   0.00000  Uiso   1.00
C507   C     0.38931   0.21593   0.76667   0.00000  Uiso   1.00
C508   C     0.39804   0.23198   0.87347   0.00000  Uiso   1.00
C509   C     0.42478   0.20908   0.94385   0.00000  Uiso   1.00
C510   C     0.42850   0.22941   0.03741   0.00000  Uiso   1.00
C511   C     0.44546   0.24799   0.19985   0.00000  Uiso   1.00
C512   C     0.40489   0.25551   0.69944   0.00000  Uiso   1.00
C513   C     0.43736   0.25239   0.62348   0.00000  Uiso   1.00
C514   C     0.44684   0.29254   0.57052   0.00000  Uiso   1.00
C515   C     0.47440   0.34765   0.46271   0.00000  Uiso   1.00
C516   C     0.33697   0.21297   0.75518   0.00000  Uiso   1.00
C517   C     0.31233   0.17408   0.72607   0.00000  Uiso   1.00
C518   C     0.26463   0.17841   0.72002   0.00000  Uiso   1.00
C519   C     0.18673   0.16746   0.69877   0.00000  Uiso   1.00
C520   C     0.34839   0.29278   0.80766   0.00000  Uiso   1.00
C521   C     0.37582   0.27372   0.89573   0.00000  Uiso   1.00
C522   C     0.37950   0.29410   0.98921   0.00000  Uiso   1.00
C523   C     0.40623   0.27123   0.05972   0.00000  Uiso   1.00
C524   C     0.38266   0.29725   0.72170   0.00000  Uiso   1.00
C525   C     0.39209   0.33741   0.66883   0.00000  Uiso   1.00
C526   C     0.42457   0.33436   0.59282   0.00000  Uiso   1.00
C527   C     0.31473   0.25471   0.77745   0.00000  Uiso   1.00
C528   C     0.26706   0.25910   0.77143   0.00000  Uiso   1.00
C529   C     0.24236   0.22023   0.74232   0.00000  Uiso   1.00
H530   H     0.40662   0.18344   0.74933   0.00000  Uiso   1.00
H531   H     0.44198   0.17678   0.92659   0.00000  Uiso   1.00
H532   H     0.45456   0.22009   0.60626   0.00000  Uiso   1.00
H533   H     0.32955   0.14179   0.70885   0.00000  Uiso   1.00
H534   H     0.47139   0.18781   0.13293   0.00000  Uiso   1.00
H535   H     0.49790   0.27912   0.45747   0.00000  Uiso   1.00
H536   H     0.23430   0.11401   0.67379   0.00000  Uiso   1.00
H537   H     0.33108   0.32528   0.82499   0.00000  Uiso   1.00
H538   H     0.36229   0.32640   0.00642   0.00000  Uiso   1.00
H539   H     0.37488   0.36971   0.68608   0.00000  Uiso   1.00
H540   H     0.24987   0.29141   0.78867   0.00000  Uiso   1.00
H541   H     0.40672   0.30925   0.19771   0.00000  Uiso   1.00
H542   H     0.43323   0.40056   0.52225   0.00000  Uiso   1.00
H543   H     0.16962   0.23545   0.73857   0.00000  Uiso   1.00
O544   O     0.46096   0.24671   0.28329   0.00000  Uiso   1.00
O545   O     0.49574   0.36651   0.39710   0.00000  Uiso   1.00
O546   O     0.14990   0.14989   0.68091   0.00000  Uiso   1.00
N547   N     0.45188   0.21623   0.12328   0.00000  Uiso   1.00
N548   N     0.47667   0.30161   0.49178   0.00000  Uiso   1.00
N549   N     0.23022   0.14725   0.69399   0.00000  Uiso   1.00
N550   N     0.41708   0.28157   0.15815   0.00000  Uiso   1.00
N551   N     0.44187   0.36695   0.52664   0.00000  Uiso   1.00
N552   N     0.19542   0.21259   0.72885   0.00000  Uiso   1.00
C553   C     0.71593   0.61069   0.51667   0.00000  Uiso   1.00
C554   C     0.73198   0.60196   0.62347   0.00000  Uiso   1.00
C555   C     0.70908   0.57522   0.69385   0.00000  Uiso   1.00
C556   C     0.72941   0.57150   0.78741   0.00000  Uiso   1.00
C557   C     0.74799   0.55454   0.94985   0.00000  Uiso   1.00
C558   C     0.75551   0.59511   0.44944   0.00000  Uiso   1.00
C559   C     0.75239   0.56264   0.37348   0.00000  Uiso   1.00
C560   C     0.79254   0.55316   0.32052   0.00000  Uiso   1.00
C561   C     0.84765   0.52560   0.21271   0.00000  Uiso   1.00
C562   C     0.71297   0.66303   0.50518   0.00000  Uiso   1.00
C563   C     0.67408   0.68767   0.47607   0.00000  Uiso   1.00
C564   C     0.67841   0.73537   0.47002   0.00000  Uiso   1.00
C565   C     0.66746   0.81327   0.44877   0.00000  Uiso   1.00
C566   C     0.79278   0.65161   0.55766   0.00000  Uiso   1.00
C567   C     0.77372   0.62418   0.64573   0.00000  Uiso   1.00
C568   C     0.79410   0.62050   0.73921   0.00000  Uiso   1.00
C569   C     0.77123   0.59377   0.80972   0.00000  Uiso   1.00
C570   C     0.79725   0.61734   0.47170   0.00000  Uiso   1.00
C571   C     0.83741   0.60791   0.41883   0.00000  Uiso   1.00
C572   C     0.83436   0.57543   0.34282   0.00000  Uiso   1.00
C573   C     0.75471   0.68527   0.52745   0.00000  Uiso   1.00
C574   C     0.75910   0.73294   0.52143   0.00000  Uiso   1.00
C575   C     0.72023   0.75764   0.49232   0.00000  Uiso   1.00
H576   H     0.68344   0.59338   0.49933   0.00000  Uiso   1.00
H577   H     0.67678   0.55802   0.67659   0.00000  Uiso   1.00
H578   H     0.72009   0.54544   0.35626   0.00000  Uiso   1.00
H579   H     0.64179   0.67045   0.45885   0.00000  Uiso   1.00
H580   H     0.68781   0.52861   0.88293   0.00000  Uiso   1.00
H581   H     0.77912   0.50210   0.20747   0.00000  Uiso   1.00
H582   H     0.61401   0.76570   0.42379   0.00000  Uiso   1.00
H583   H     0.82528   0.66892   0.57499   0.00000  Uiso   1.00
H584   H     0.82640   0.63771   0.75642   0.00000  Uiso   1.00
H585   H     0.86971   0.62512   0.43608   0.00000  Uiso   1.00
H586   H     0.79141   0.75013   0.53867   0.00000  Uiso   1.00
H587   H     0.80925   0.59328   0.94771   0.00000  Uiso   1.00
H588   H     0.90056   0.56677   0.27225   0.00000  Uiso   1.00
H589   H     0.73545   0.83038   0.48857   0.00000  Uiso   1.00
O590   O     0.74671   0.53904   0.03329   0.00000  Uiso   1.00
O591   O     0.86651   0.50426   0.14710   0.00000  Uiso   1.00
O592   O     0.64989   0.85010   0.43091   0.00000  Uiso   1.00
N593   N     0.71623   0.54812   0.87328   0.00000  Uiso   1.00
N594   N     0.80161   0.52333   0.24178   0.00000  Uiso   1.00
N595   N     0.64725   0.76978   0.44399   0.00000  Uiso   1.00
N596   N     0.78157   0.58292   0.90815   0.00000  Uiso   1.00
N597   N     0.86695   0.55813   0.27664   0.00000  Uiso   1.00
N598   N     0.71259   0.80458   0.47885   0.00000  Uiso   1.00
C599   C     0.21593   0.11069   0.01667   0.00000  Uiso   1.00
C600   C     0.23198   0.10196   0.12347   0.00000  Uiso   1.00
C601   C     0.20908   0.07522   0.19385   0.00000  Uiso   1.00
C602   C     0.22941   0.07150   0.28741   0.00000  Uiso   1.00
C603   C     0.24799   0.05454   0.44985   0.00000  Uiso   1.00
C604   C     0.25551   0.09511   0.94944   0.00000  Uiso   1.00
C605   C     0.25239   0.06264   0.87348   0.00000  Uiso   1.00
C606   C     0.29254   0.05316   0.82052   0.00000  Uiso   1.00
C607   C     0.34765   0.02560   0.71271   0.00000  Uiso   1.00
C608   C     0.21297   0.16303   0.00518   0.00000  Uiso   1.00
C609   C     0.17408   0.18767   0.97607   0.00000  Uiso   1.00
C610   C     0.17841   0.23537   0.97002   0.00000  Uiso   1.00
C611   C     0.16746   0.31327   0.94877   0.00000  Uiso   1.00
C612   C     0.29278   0.15161   0.05766   0.00000  Uiso   1.00
C613   C     0.27372   0.12418   0.14573   0.00000  Uiso   1.00
C614   C     0.29410   0.12050   0.23921   0.00000  Uiso   1.00
C615   C     0.27123   0.09377   0.30972   0.00000  Uiso   1.00
C616   C     0.29725   0.11734   0.97170   0.00000  Uiso   1.00
C617   C     0.33741   0.10791   0.91883   0.00000  Uiso   1.00
C618   C     0.33436   0.07543   0.84282   0.00000  Uiso   1.00
C619   C     0.25471   0.18527   0.02745   0.00000  Uiso   1.00
C620   C     0.25910   0.23294   0.02143   0.00000  Uiso   1.00
C621   C     0.22023   0.25764   0.99232   0.00000  Uiso   1.00
H622   H     0.18344   0.09338   0.99933   0.00000  Uiso   1.00
H623   H     0.17678   0.05802   0.17659   0.00000  Uiso   1.00
H624   H     0.22009   0.04544   0.85626   0.00000  Uiso   1.00
H625   H     0.14179   0.17045   0.95885   0.00000  Uiso   1.00
H626   H     0.18781   0.02861   0.38293   0.00000  Uiso   1.00
H627   H     0.27912   0.00210   0.70747   0.00000  Uiso   1.00
H628   H     0.11401   0.26570   0.92379   0.00000  Uiso   1.00
H629   H     0.32528   0.16892   0.07499   0.00000  Uiso   1.00
H630   H     0.32640   0.13771   0.25642   0.00000  Uiso   1.00
H631   H     0.36971   0.12512   0.93608   0.00000  Uiso   1.00
H632   H     0.29141   0.25013   0.03867   0.00000  Uiso   1.00
H633   H     0.30925   0.09328   0.44771   0.00000  Uiso   1.00
H634   H     0.40056   0.06677   0.77225   0.00000  Uiso   1.00
H635   H     0.23545   0.33038   0.98857   0.00000  Uiso   1.00
O636   O     0.24671   0.03904   0.53329   0.00000  Uiso   1.00
O637   O     0.36651   0.00426   0.64710   0.00000  Uiso   1.00
O638   O     0.14989   0.35010   0.93091   0.00000  Uiso   1.00
N639   N     0.21623   0.04812   0.37328   0.00000  Uiso   1.00
N640   N     0.30161   0.02333   0.74178   0.00000  Uiso   1.00
N641   N     0.14725   0.26978   0.94399   0.00000  Uiso   1.00
N642   N     0.28157   0.08292   0.40815   0.00000  Uiso   1.00
N643   N     0.36695   0.05813   0.77664   0.00000  Uiso   1.00
N644   N     0.21259   0.30458   0.97885   0.00000  Uiso   1.00
C645   C     0.78407   0.88931   0.01667   0.00000  Uiso   1.00
C646   C     0.76802   0.89804   0.12347   0.00000  Uiso   1.00
C647   C     0.79092   0.92478   0.19385   0.00000  Uiso   1.00
C648   C     0.77059   0.92850   0.28741   0.00000  Uiso   1.00
C649   C     0.75201   0.94546   0.44985   0.00000  Uiso   1.00
C650   C     0.74449   0.90489   0.94944   0.00000  Uiso   1.00
C651   C     0.74761   0.93736   0.87348   0.00000  Uiso   1.00
C652   C     0.70746   0.94684   0.82052   0.00000  Uiso   1.00
C653   C     0.65235   0.97440   0.71271   0.00000  Uiso   1.00
C654   C     0.78703   0.83697   0.00518   0.00000  Uiso   1.00
C655   C     0.82592   0.81233   0.97607   0.00000  Uiso   1.00
C656   C     0.82159   0.76463   0.97002   0.00000  Uiso   1.00
C657   C     0.83254   0.68673   0.94877   0.00000  Uiso   1.00
C658   C     0.70722   0.84839   0.05766   0.00000  Uiso   1.00
C659   C     0.72628   0.87582   0.14573   0.00000  Uiso   1.00
C660   C     0.70590   0.87950   0.23921   0.00000  Uiso   1.00
C661   C     0.72877   0.90623   0.30972   0.00000  Uiso   1.00
C662   C     0.70275   0.88266   0.97170   0.00000  Uiso   1.00
C663   C     0.66259   0.89209   0.91883   0.00000  Uiso   1.00
C664   C     0.66564   0.92457   0.84282   0.00000  Uiso   1.00
C665   C     0.74529   0.81473   0.02745   0.00000  Uiso   1.00
C666   C     0.74090   0.76706   0.02143   0.00000  Uiso   1.00
C667   C     0.77977   0.74236   0.99232   0.00000  Uiso   1.00
H668   H     0.81656   0.90662   0.99933   0.00000  Uiso   1.00
H669   H     0.82322   0.94198   0.17659   0.00000  Uiso   1.00
H670   H     0.77991   0.95456   0.85626   0.00000  Uiso   1.00
H671   H     0.85821   0.82955   0.95885   0.00000  Uiso   1.00
H672   H     0.81219   0.97139   0.38293   0.00000  Uiso   1.00
H673   H     0.72088   0.99790   0.70747   0.00000  Uiso   1.00
H674   H     0.88599   0.73430   0.92379   0.00000  Uiso   1.00
H675   H     0.67472   0.83108   0.07499   0.00000  Uiso   1.00
H676   H     0.67360   0.86229   0.25642   0.00000  Uiso   1.00
H677   H     0.63029   0.87488   0.93608   0.00000  Uiso   1.00
H678   H     0.70859   0.74987   0.03867   0.00000  Uiso   1.00
H679   H     0.69075   0.90672   0.44771   0.00000  Uiso   1.00
H680   H     0.59944   0.93323   0.77225   0.00000  Uiso   1.00
H681   H     0.76455   0.66962   0.98857   0.00000  Uiso   1.00
O682   O     0.75329   0.96096   0.53329   0.00000  Uiso   1.00
O683   O     0.63349   0.99574   0.64710   0.00000  Uiso   1.00
O684   O     0.85011   0.64990   0.93091   0.00000  Uiso   1.00
N685   N     0.78377   0.95188   0.37328   0.00000  Uiso   1.00
N686   N     0.69839   0.97667   0.74178   0.00000  Uiso   1.00
N687   N     0.85275   0.73022   0.94399   0.00000  Uiso   1.00
N688   N     0.71843   0.91708   0.40815   0.00000  Uiso   1.00
N689   N     0.63305   0.94187   0.77664   0.00000  Uiso   1.00
N690   N     0.78741   0.69542   0.97885   0.00000  Uiso   1.00
C691   C     0.28407   0.38931   0.51667   0.00000  Uiso   1.00
C692   C     0.26802   0.39804   0.62347   0.00000  Uiso   1.00
C693   C     0.29092   0.42478   0.69385   0.00000  Uiso   1.00
C694   C     0.27059   0.42850   0.78741   0.00000  Uiso   1.00
C695   C     0.25201   0.44546   0.94985   0.00000  Uiso   1.00
C696   C     0.24449   0.40489   0.44944   0.00000  Uiso   1.00
C697   C     0.24761   0.43736   0.37348   0.00000  Uiso   1.00
C698   C     0.20746   0.44684   0.32052   0.00000  Uiso   1.00
C699   C     0.15235   0.47440   0.21271   0.00000  Uiso   1.00
C700   C     0.28703   0.33697   0.50518   0.00000  Uiso   1.00
C701   C     0.32592   0.31233   0.47607   0.00000  Uiso   1.00
C702   C     0.32159   0.26463   0.47002   0.00000  Uiso   1.00
C703   C     0.33254   0.18673   0.44877   0.00000  Uiso   1.00
C704   C     0.20722   0.34839   0.55766   0.00000  Uiso   1.00
C705   C     0.22628   0.37582   0.64573   0.00000  Uiso   1.00
C706   C     0.20590   0.37950   0.73921   0.00000  Uiso   1.00
C707   C     0.22877   0.40623   0.80972   0.00000  Uiso   1.00
C708   C     0.20275   0.38266   0.47170   0.00000  Uiso   1.00
C709   C     0.16259   0.39209   0.41883   0.00000  Uiso   1.00
C710   C     0.16564   0.42457   0.34282   0.00000  Uiso   1.00
C711   C     0.24529   0.31473   0.52745   0.00000  Uiso   1.00
C712   C     0.24090   0.26706   0.52143   0.00000  Uiso   1.00
C713   C     0.27977   0.24236   0.49232   0.00000  Uiso   1.00
H714   H     0.31656   0.40662   0.49933   0.00000  Uiso   1.00
H715   H     0.32322   0.44198   0.67659   0.00000  Uiso   1.00
H716   H     0.27991   0.45456   0.35626   0.00000  Uiso   1.00
H717   H     0.35821   0.32955   0.45885   0.00000  Uiso   1.00
H718   H     0.31219   0.47139   0.88293   0.00000  Uiso   1.00
H719   H     0.22088   0.49790   0.20747   0.00000  Uiso   1.00
H720   H     0.38599   0.23430   0.42379   0.00000  Uiso   1.00
H721   H     0.17472   0.33108   0.57499   0.00000  Uiso   1.00
H722   H     0.17360   0.36229   0.75642   0.00000  Uiso   1.00
H723   H     0.13029   0.37488   0.43608   0.00000  Uiso   1.00
H724   H     0.20859   0.24987   0.53867   0.00000  Uiso   1.00
H725   H     0.19075   0.40672   0.94771   0.00000  Uiso   1.00
H726   H     0.09944   0.43323   0.27225   0.00000  Uiso   1.00
H727   H     0.26455   0.16962   0.48857   0.00000  Uiso   1.00
O728   O     0.25329   0.46096   0.03329   0.00000  Uiso   1.00
O729   O     0.13349   0.49574   0.14710   0.00000  Uiso   1.00
O730   O     0.35011   0.14990   0.43091   0.00000  Uiso   1.00
N731   N     0.28377   0.45188   0.87328   0.00000  Uiso   1.00
N732   N     0.19839   0.47667   0.24178   0.00000  Uiso   1.00
N733   N     0.35275   0.23022   0.44399   0.00000  Uiso   1.00
N734   N     0.21843   0.41708   0.90815   0.00000  Uiso   1.00
N735   N     0.13305   0.44187   0.27664   0.00000  Uiso   1.00
N736   N     0.28741   0.19542   0.47885   0.00000  Uiso   1.00
