data_job_01707
_audit_creation_date              2018-12-19
_audit_creation_method            'Materials Studio'
_symmetry_space_group_name_H-M    'P1'
_symmetry_Int_Tables_number       1
_symmetry_cell_setting            triclinic
loop_
_symmetry_equiv_pos_as_xyz
  x,y,z
_cell_length_a                    38.2667
_cell_length_b                    11.5326
_cell_length_c                    24.4577
_cell_angle_alpha                 90.0000
_cell_angle_beta                  90.0000
_cell_angle_gamma                 90.0000
loop_
_atom_site_label
_atom_site_type_symbol
_atom_site_fract_x
_atom_site_fract_y
_atom_site_fract_z
_atom_site_U_iso_or_equiv
_atom_site_adp_type
_atom_site_occupancy
C1     C     0.56647   0.71015   0.56505   0.00000  Uiso   1.00
C2     C     0.59065   0.80211   0.58906   0.00000  Uiso   1.00
C3     C     0.62251   0.83642   0.56733   0.00000  Uiso   1.00
C4     C     0.64071   0.92188   0.59540   0.00000  Uiso   1.00
C5     C     0.68027   0.05713   0.62538   0.00000  Uiso   1.00
C6     C     0.56079   0.62102   0.61024   0.00000  Uiso   1.00
C7     C     0.56754   0.50308   0.60633   0.00000  Uiso   1.00
C8     C     0.56060   0.43611   0.65223   0.00000  Uiso   1.00
C9     C     0.55378   0.29020   0.71509   0.00000  Uiso   1.00
C10    C     0.53128   0.76951   0.55650   0.00000  Uiso   1.00
C11    C     0.51322   0.77640   0.50740   0.00000  Uiso   1.00
C12    C     0.48143   0.83442   0.50805   0.00000  Uiso   1.00
C13    C     0.42881   0.91906   0.48746   0.00000  Uiso   1.00
C14    C     0.54211   0.80091   0.65354   0.00000  Uiso   1.00
C15    C     0.57742   0.85140   0.63712   0.00000  Uiso   1.00
C16    C     0.59557   0.93684   0.66523   0.00000  Uiso   1.00
C17    C     0.62746   0.97128   0.64355   0.00000  Uiso   1.00
C18    C     0.54756   0.67032   0.65830   0.00000  Uiso   1.00
C19    C     0.54060   0.60350   0.70423   0.00000  Uiso   1.00
C20    C     0.54735   0.48549   0.70038   0.00000  Uiso   1.00
C21    C     0.51805   0.81881   0.60456   0.00000  Uiso   1.00
C22    C     0.48628   0.87682   0.60530   0.00000  Uiso   1.00
C23    C     0.46818   0.88380   0.55620   0.00000  Uiso   1.00
H24    H     0.57676   0.67176   0.52764   0.00000  Uiso   1.00
H25    H     0.63274   0.79824   0.53014   0.00000  Uiso   1.00
H26    H     0.57778   0.46495   0.56912   0.00000  Uiso   1.00
H27    H     0.52347   0.73824   0.47021   0.00000  Uiso   1.00
H28    H     0.68897   0.96018   0.55412   0.00000  Uiso   1.00
H29    H     0.57307   0.25741   0.63632   0.00000  Uiso   1.00
H30    H     0.45855   0.83368   0.42774   0.00000  Uiso   1.00
H31    H     0.53182   0.83929   0.69096   0.00000  Uiso   1.00
H32    H     0.58533   0.97498   0.70242   0.00000  Uiso   1.00
H33    H     0.53036   0.64168   0.74141   0.00000  Uiso   1.00
H34    H     0.47606   0.91496   0.64250   0.00000  Uiso   1.00
H35    H     0.65049   0.10362   0.69395   0.00000  Uiso   1.00
H36    H     0.53459   0.40085   0.77615   0.00000  Uiso   1.00
H37    H     0.42007   0.97711   0.56757   0.00000  Uiso   1.00
O38    O     0.70575   0.11810   0.62864   0.00000  Uiso   1.00
O39    O     0.55368   0.19610   0.73648   0.00000  Uiso   1.00
O40    O     0.40343   0.95215   0.46283   0.00000  Uiso   1.00
N41    N     0.67257   0.97533   0.58545   0.00000  Uiso   1.00
N42    N     0.56421   0.31829   0.66230   0.00000  Uiso   1.00
N43    N     0.45714   0.85702   0.46730   0.00000  Uiso   1.00
N44    N     0.65186   0.05252   0.66069   0.00000  Uiso   1.00
N45    N     0.54350   0.39548   0.73755   0.00000  Uiso   1.00
N46    N     0.43643   0.93421   0.54255   0.00000  Uiso   1.00
C47    C     0.56647   0.21015   0.06505   0.00000  Uiso   1.00
C48    C     0.59065   0.30211   0.08906   0.00000  Uiso   1.00
C49    C     0.62251   0.33642   0.06733   0.00000  Uiso   1.00
C50    C     0.64071   0.42188   0.09540   0.00000  Uiso   1.00
C51    C     0.68027   0.55713   0.12538   0.00000  Uiso   1.00
C52    C     0.56079   0.12102   0.11024   0.00000  Uiso   1.00
C53    C     0.56754   0.00308   0.10633   0.00000  Uiso   1.00
C54    C     0.56060   0.93611   0.15223   0.00000  Uiso   1.00
C55    C     0.55378   0.79020   0.21509   0.00000  Uiso   1.00
C56    C     0.53128   0.26951   0.05650   0.00000  Uiso   1.00
C57    C     0.51322   0.27640   0.00740   0.00000  Uiso   1.00
C58    C     0.48143   0.33442   0.00805   0.00000  Uiso   1.00
C59    C     0.42881   0.41906   0.98746   0.00000  Uiso   1.00
C60    C     0.54211   0.30091   0.15354   0.00000  Uiso   1.00
C61    C     0.57742   0.35140   0.13712   0.00000  Uiso   1.00
C62    C     0.59557   0.43684   0.16523   0.00000  Uiso   1.00
C63    C     0.62746   0.47128   0.14355   0.00000  Uiso   1.00
C64    C     0.54756   0.17032   0.15830   0.00000  Uiso   1.00
C65    C     0.54060   0.10350   0.20423   0.00000  Uiso   1.00
C66    C     0.54735   0.98549   0.20038   0.00000  Uiso   1.00
C67    C     0.51805   0.31881   0.10456   0.00000  Uiso   1.00
C68    C     0.48628   0.37682   0.10530   0.00000  Uiso   1.00
C69    C     0.46818   0.38380   0.05620   0.00000  Uiso   1.00
H70    H     0.57676   0.17176   0.02764   0.00000  Uiso   1.00
H71    H     0.63274   0.29824   0.03014   0.00000  Uiso   1.00
H72    H     0.57778   0.96495   0.06912   0.00000  Uiso   1.00
H73    H     0.52347   0.23824   0.97021   0.00000  Uiso   1.00
H74    H     0.68897   0.46018   0.05412   0.00000  Uiso   1.00
H75    H     0.57307   0.75741   0.13632   0.00000  Uiso   1.00
H76    H     0.45855   0.33368   0.92774   0.00000  Uiso   1.00
H77    H     0.53182   0.33929   0.19096   0.00000  Uiso   1.00
H78    H     0.58533   0.47498   0.20242   0.00000  Uiso   1.00
H79    H     0.53036   0.14168   0.24141   0.00000  Uiso   1.00
H80    H     0.47606   0.41496   0.14250   0.00000  Uiso   1.00
H81    H     0.65049   0.60362   0.19395   0.00000  Uiso   1.00
H82    H     0.53459   0.90085   0.27615   0.00000  Uiso   1.00
H83    H     0.42007   0.47711   0.06757   0.00000  Uiso   1.00
O84    O     0.70575   0.61810   0.12864   0.00000  Uiso   1.00
O85    O     0.55368   0.69610   0.23648   0.00000  Uiso   1.00
O86    O     0.40343   0.45215   0.96283   0.00000  Uiso   1.00
N87    N     0.67257   0.47533   0.08545   0.00000  Uiso   1.00
N88    N     0.56421   0.81829   0.16230   0.00000  Uiso   1.00
N89    N     0.45714   0.35702   0.96730   0.00000  Uiso   1.00
N90    N     0.65186   0.55252   0.16069   0.00000  Uiso   1.00
N91    N     0.54350   0.89548   0.23755   0.00000  Uiso   1.00
N92    N     0.43643   0.43421   0.04255   0.00000  Uiso   1.00
C93    C     0.06647   0.71015   0.06505   0.00000  Uiso   1.00
C94    C     0.09065   0.80211   0.08906   0.00000  Uiso   1.00
C95    C     0.12251   0.83642   0.06733   0.00000  Uiso   1.00
C96    C     0.14071   0.92188   0.09540   0.00000  Uiso   1.00
C97    C     0.18027   0.05713   0.12538   0.00000  Uiso   1.00
C98    C     0.06079   0.62102   0.11024   0.00000  Uiso   1.00
C99    C     0.06754   0.50308   0.10633   0.00000  Uiso   1.00
C100   C     0.06060   0.43611   0.15223   0.00000  Uiso   1.00
C101   C     0.05378   0.29020   0.21509   0.00000  Uiso   1.00
C102   C     0.03128   0.76951   0.05650   0.00000  Uiso   1.00
C103   C     0.01322   0.77640   0.00740   0.00000  Uiso   1.00
C104   C     0.98143   0.83442   0.00805   0.00000  Uiso   1.00
C105   C     0.92881   0.91906   0.98746   0.00000  Uiso   1.00
C106   C     0.04211   0.80091   0.15354   0.00000  Uiso   1.00
C107   C     0.07742   0.85140   0.13712   0.00000  Uiso   1.00
C108   C     0.09557   0.93684   0.16523   0.00000  Uiso   1.00
C109   C     0.12746   0.97128   0.14355   0.00000  Uiso   1.00
C110   C     0.04756   0.67032   0.15830   0.00000  Uiso   1.00
C111   C     0.04060   0.60350   0.20423   0.00000  Uiso   1.00
C112   C     0.04735   0.48549   0.20038   0.00000  Uiso   1.00
C113   C     0.01805   0.81881   0.10456   0.00000  Uiso   1.00
C114   C     0.98628   0.87682   0.10530   0.00000  Uiso   1.00
C115   C     0.96818   0.88380   0.05620   0.00000  Uiso   1.00
H116   H     0.07676   0.67176   0.02764   0.00000  Uiso   1.00
H117   H     0.13274   0.79824   0.03014   0.00000  Uiso   1.00
H118   H     0.07778   0.46495   0.06912   0.00000  Uiso   1.00
H119   H     0.02347   0.73824   0.97021   0.00000  Uiso   1.00
H120   H     0.18897   0.96018   0.05412   0.00000  Uiso   1.00
H121   H     0.07307   0.25741   0.13632   0.00000  Uiso   1.00
H122   H     0.95855   0.83368   0.92774   0.00000  Uiso   1.00
H123   H     0.03182   0.83929   0.19096   0.00000  Uiso   1.00
H124   H     0.08533   0.97498   0.20242   0.00000  Uiso   1.00
H125   H     0.03036   0.64168   0.24141   0.00000  Uiso   1.00
H126   H     0.97606   0.91496   0.14250   0.00000  Uiso   1.00
H127   H     0.15049   0.10362   0.19395   0.00000  Uiso   1.00
H128   H     0.03459   0.40085   0.27615   0.00000  Uiso   1.00
H129   H     0.92007   0.97711   0.06757   0.00000  Uiso   1.00
O130   O     0.20575   0.11810   0.12864   0.00000  Uiso   1.00
O131   O     0.05368   0.19610   0.23648   0.00000  Uiso   1.00
O132   O     0.90343   0.95215   0.96283   0.00000  Uiso   1.00
N133   N     0.17257   0.97533   0.08545   0.00000  Uiso   1.00
N134   N     0.06421   0.31829   0.16230   0.00000  Uiso   1.00
N135   N     0.95714   0.85702   0.96730   0.00000  Uiso   1.00
N136   N     0.15186   0.05252   0.16069   0.00000  Uiso   1.00
N137   N     0.04350   0.39548   0.23755   0.00000  Uiso   1.00
N138   N     0.93643   0.93421   0.04255   0.00000  Uiso   1.00
C139   C     0.06647   0.21015   0.56505   0.00000  Uiso   1.00
C140   C     0.09065   0.30211   0.58906   0.00000  Uiso   1.00
C141   C     0.12251   0.33642   0.56733   0.00000  Uiso   1.00
C142   C     0.14071   0.42188   0.59540   0.00000  Uiso   1.00
C143   C     0.18027   0.55713   0.62538   0.00000  Uiso   1.00
C144   C     0.06079   0.12102   0.61024   0.00000  Uiso   1.00
C145   C     0.06754   0.00308   0.60633   0.00000  Uiso   1.00
C146   C     0.06060   0.93611   0.65223   0.00000  Uiso   1.00
C147   C     0.05378   0.79020   0.71509   0.00000  Uiso   1.00
C148   C     0.03128   0.26951   0.55650   0.00000  Uiso   1.00
C149   C     0.01322   0.27640   0.50740   0.00000  Uiso   1.00
C150   C     0.98143   0.33442   0.50805   0.00000  Uiso   1.00
C151   C     0.92881   0.41906   0.48746   0.00000  Uiso   1.00
C152   C     0.04211   0.30091   0.65354   0.00000  Uiso   1.00
C153   C     0.07742   0.35140   0.63712   0.00000  Uiso   1.00
C154   C     0.09557   0.43684   0.66523   0.00000  Uiso   1.00
C155   C     0.12746   0.47128   0.64355   0.00000  Uiso   1.00
C156   C     0.04756   0.17032   0.65830   0.00000  Uiso   1.00
C157   C     0.04060   0.10350   0.70423   0.00000  Uiso   1.00
C158   C     0.04735   0.98549   0.70038   0.00000  Uiso   1.00
C159   C     0.01805   0.31881   0.60456   0.00000  Uiso   1.00
C160   C     0.98628   0.37682   0.60530   0.00000  Uiso   1.00
C161   C     0.96818   0.38380   0.55620   0.00000  Uiso   1.00
H162   H     0.07676   0.17176   0.52764   0.00000  Uiso   1.00
H163   H     0.13274   0.29824   0.53014   0.00000  Uiso   1.00
H164   H     0.07778   0.96495   0.56912   0.00000  Uiso   1.00
H165   H     0.02347   0.23824   0.47021   0.00000  Uiso   1.00
H166   H     0.18897   0.46018   0.55412   0.00000  Uiso   1.00
H167   H     0.07307   0.75741   0.63632   0.00000  Uiso   1.00
H168   H     0.95855   0.33368   0.42774   0.00000  Uiso   1.00
H169   H     0.03182   0.33929   0.69096   0.00000  Uiso   1.00
H170   H     0.08533   0.47498   0.70242   0.00000  Uiso   1.00
H171   H     0.03036   0.14168   0.74141   0.00000  Uiso   1.00
H172   H     0.97606   0.41496   0.64250   0.00000  Uiso   1.00
H173   H     0.15049   0.60362   0.69395   0.00000  Uiso   1.00
H174   H     0.03459   0.90085   0.77615   0.00000  Uiso   1.00
H175   H     0.92007   0.47711   0.56757   0.00000  Uiso   1.00
O176   O     0.20575   0.61810   0.62864   0.00000  Uiso   1.00
O177   O     0.05368   0.69610   0.73648   0.00000  Uiso   1.00
O178   O     0.90343   0.45215   0.46283   0.00000  Uiso   1.00
N179   N     0.17257   0.47533   0.58545   0.00000  Uiso   1.00
N180   N     0.06421   0.81829   0.66230   0.00000  Uiso   1.00
N181   N     0.95714   0.35702   0.46730   0.00000  Uiso   1.00
N182   N     0.15186   0.55252   0.66069   0.00000  Uiso   1.00
N183   N     0.04350   0.89548   0.73755   0.00000  Uiso   1.00
N184   N     0.93643   0.43421   0.54255   0.00000  Uiso   1.00
C185   C     0.43353   0.28985   0.56505   0.00000  Uiso   1.00
C186   C     0.40935   0.19789   0.58906   0.00000  Uiso   1.00
C187   C     0.37749   0.16358   0.56733   0.00000  Uiso   1.00
C188   C     0.35929   0.07812   0.59540   0.00000  Uiso   1.00
C189   C     0.31973   0.94287   0.62538   0.00000  Uiso   1.00
C190   C     0.43921   0.37898   0.61024   0.00000  Uiso   1.00
C191   C     0.43246   0.49692   0.60633   0.00000  Uiso   1.00
C192   C     0.43940   0.56389   0.65223   0.00000  Uiso   1.00
C193   C     0.44622   0.70980   0.71509   0.00000  Uiso   1.00
C194   C     0.46872   0.23049   0.55650   0.00000  Uiso   1.00
C195   C     0.48678   0.22360   0.50740   0.00000  Uiso   1.00
C196   C     0.51857   0.16558   0.50805   0.00000  Uiso   1.00
C197   C     0.57119   0.08094   0.48746   0.00000  Uiso   1.00
C198   C     0.45789   0.19909   0.65354   0.00000  Uiso   1.00
C199   C     0.42258   0.14860   0.63712   0.00000  Uiso   1.00
C200   C     0.40443   0.06316   0.66523   0.00000  Uiso   1.00
C201   C     0.37254   0.02872   0.64355   0.00000  Uiso   1.00
C202   C     0.45244   0.32968   0.65830   0.00000  Uiso   1.00
C203   C     0.45940   0.39650   0.70423   0.00000  Uiso   1.00
C204   C     0.45265   0.51451   0.70038   0.00000  Uiso   1.00
C205   C     0.48195   0.18119   0.60456   0.00000  Uiso   1.00
C206   C     0.51372   0.12318   0.60530   0.00000  Uiso   1.00
C207   C     0.53182   0.11620   0.55620   0.00000  Uiso   1.00
H208   H     0.42324   0.32824   0.52764   0.00000  Uiso   1.00
H209   H     0.36726   0.20176   0.53014   0.00000  Uiso   1.00
H210   H     0.42222   0.53505   0.56912   0.00000  Uiso   1.00
H211   H     0.47653   0.26176   0.47021   0.00000  Uiso   1.00
H212   H     0.31103   0.03982   0.55412   0.00000  Uiso   1.00
H213   H     0.42693   0.74259   0.63632   0.00000  Uiso   1.00
H214   H     0.54145   0.16632   0.42774   0.00000  Uiso   1.00
H215   H     0.46818   0.16071   0.69096   0.00000  Uiso   1.00
H216   H     0.41467   0.02502   0.70242   0.00000  Uiso   1.00
H217   H     0.46964   0.35832   0.74141   0.00000  Uiso   1.00
H218   H     0.52394   0.08504   0.64250   0.00000  Uiso   1.00
H219   H     0.34951   0.89638   0.69395   0.00000  Uiso   1.00
H220   H     0.46541   0.59915   0.77615   0.00000  Uiso   1.00
H221   H     0.57993   0.02289   0.56757   0.00000  Uiso   1.00
O222   O     0.29425   0.88190   0.62864   0.00000  Uiso   1.00
O223   O     0.44632   0.80390   0.73648   0.00000  Uiso   1.00
O224   O     0.59657   0.04785   0.46283   0.00000  Uiso   1.00
N225   N     0.32743   0.02467   0.58545   0.00000  Uiso   1.00
N226   N     0.43579   0.68171   0.66230   0.00000  Uiso   1.00
N227   N     0.54286   0.14298   0.46730   0.00000  Uiso   1.00
N228   N     0.34814   0.94748   0.66069   0.00000  Uiso   1.00
N229   N     0.45650   0.60452   0.73755   0.00000  Uiso   1.00
N230   N     0.56357   0.06579   0.54255   0.00000  Uiso   1.00
C231   C     0.43353   0.78985   0.06505   0.00000  Uiso   1.00
C232   C     0.40935   0.69789   0.08906   0.00000  Uiso   1.00
C233   C     0.37749   0.66358   0.06733   0.00000  Uiso   1.00
C234   C     0.35929   0.57812   0.09540   0.00000  Uiso   1.00
C235   C     0.31973   0.44287   0.12538   0.00000  Uiso   1.00
C236   C     0.43921   0.87898   0.11024   0.00000  Uiso   1.00
C237   C     0.43246   0.99692   0.10633   0.00000  Uiso   1.00
C238   C     0.43940   0.06389   0.15223   0.00000  Uiso   1.00
C239   C     0.44622   0.20980   0.21509   0.00000  Uiso   1.00
C240   C     0.46872   0.73049   0.05650   0.00000  Uiso   1.00
C241   C     0.48678   0.72360   0.00740   0.00000  Uiso   1.00
C242   C     0.51857   0.66558   0.00805   0.00000  Uiso   1.00
C243   C     0.57119   0.58094   0.98746   0.00000  Uiso   1.00
C244   C     0.45789   0.69909   0.15354   0.00000  Uiso   1.00
C245   C     0.42258   0.64860   0.13712   0.00000  Uiso   1.00
C246   C     0.40443   0.56316   0.16523   0.00000  Uiso   1.00
C247   C     0.37254   0.52872   0.14355   0.00000  Uiso   1.00
C248   C     0.45244   0.82968   0.15830   0.00000  Uiso   1.00
C249   C     0.45940   0.89650   0.20423   0.00000  Uiso   1.00
C250   C     0.45265   0.01451   0.20038   0.00000  Uiso   1.00
C251   C     0.48195   0.68119   0.10456   0.00000  Uiso   1.00
C252   C     0.51372   0.62318   0.10530   0.00000  Uiso   1.00
C253   C     0.53182   0.61620   0.05620   0.00000  Uiso   1.00
H254   H     0.42324   0.82824   0.02764   0.00000  Uiso   1.00
H255   H     0.36726   0.70176   0.03014   0.00000  Uiso   1.00
H256   H     0.42222   0.03505   0.06912   0.00000  Uiso   1.00
H257   H     0.47653   0.76176   0.97021   0.00000  Uiso   1.00
H258   H     0.31103   0.53982   0.05412   0.00000  Uiso   1.00
H259   H     0.42693   0.24259   0.13632   0.00000  Uiso   1.00
H260   H     0.54145   0.66632   0.92774   0.00000  Uiso   1.00
H261   H     0.46818   0.66071   0.19096   0.00000  Uiso   1.00
H262   H     0.41467   0.52502   0.20242   0.00000  Uiso   1.00
H263   H     0.46964   0.85832   0.24141   0.00000  Uiso   1.00
H264   H     0.52394   0.58504   0.14250   0.00000  Uiso   1.00
H265   H     0.34951   0.39638   0.19395   0.00000  Uiso   1.00
H266   H     0.46541   0.09915   0.27615   0.00000  Uiso   1.00
H267   H     0.57993   0.52289   0.06757   0.00000  Uiso   1.00
O268   O     0.29425   0.38190   0.12864   0.00000  Uiso   1.00
O269   O     0.44632   0.30390   0.23648   0.00000  Uiso   1.00
O270   O     0.59657   0.54785   0.96283   0.00000  Uiso   1.00
N271   N     0.32743   0.52467   0.08545   0.00000  Uiso   1.00
N272   N     0.43579   0.18171   0.16230   0.00000  Uiso   1.00
N273   N     0.54286   0.64298   0.96730   0.00000  Uiso   1.00
N274   N     0.34814   0.44748   0.16069   0.00000  Uiso   1.00
N275   N     0.45650   0.10452   0.23755   0.00000  Uiso   1.00
N276   N     0.56357   0.56579   0.04255   0.00000  Uiso   1.00
C277   C     0.93353   0.28985   0.06505   0.00000  Uiso   1.00
C278   C     0.90935   0.19789   0.08906   0.00000  Uiso   1.00
C279   C     0.87749   0.16358   0.06733   0.00000  Uiso   1.00
C280   C     0.85929   0.07812   0.09540   0.00000  Uiso   1.00
C281   C     0.81973   0.94287   0.12538   0.00000  Uiso   1.00
C282   C     0.93921   0.37898   0.11024   0.00000  Uiso   1.00
C283   C     0.93246   0.49692   0.10633   0.00000  Uiso   1.00
C284   C     0.93940   0.56389   0.15223   0.00000  Uiso   1.00
C285   C     0.94622   0.70980   0.21509   0.00000  Uiso   1.00
C286   C     0.96872   0.23049   0.05650   0.00000  Uiso   1.00
C287   C     0.98678   0.22360   0.00740   0.00000  Uiso   1.00
C288   C     0.01857   0.16558   0.00805   0.00000  Uiso   1.00
C289   C     0.07119   0.08094   0.98746   0.00000  Uiso   1.00
C290   C     0.95789   0.19909   0.15354   0.00000  Uiso   1.00
C291   C     0.92258   0.14860   0.13712   0.00000  Uiso   1.00
C292   C     0.90443   0.06316   0.16523   0.00000  Uiso   1.00
C293   C     0.87254   0.02872   0.14355   0.00000  Uiso   1.00
C294   C     0.95244   0.32968   0.15830   0.00000  Uiso   1.00
C295   C     0.95940   0.39650   0.20423   0.00000  Uiso   1.00
C296   C     0.95265   0.51451   0.20038   0.00000  Uiso   1.00
C297   C     0.98195   0.18119   0.10456   0.00000  Uiso   1.00
C298   C     0.01372   0.12318   0.10530   0.00000  Uiso   1.00
C299   C     0.03182   0.11620   0.05620   0.00000  Uiso   1.00
H300   H     0.92324   0.32824   0.02764   0.00000  Uiso   1.00
H301   H     0.86726   0.20176   0.03014   0.00000  Uiso   1.00
H302   H     0.92222   0.53505   0.06912   0.00000  Uiso   1.00
H303   H     0.97653   0.26176   0.97021   0.00000  Uiso   1.00
H304   H     0.81103   0.03982   0.05412   0.00000  Uiso   1.00
H305   H     0.92693   0.74259   0.13632   0.00000  Uiso   1.00
H306   H     0.04145   0.16632   0.92774   0.00000  Uiso   1.00
H307   H     0.96818   0.16071   0.19096   0.00000  Uiso   1.00
H308   H     0.91467   0.02502   0.20242   0.00000  Uiso   1.00
H309   H     0.96964   0.35832   0.24141   0.00000  Uiso   1.00
H310   H     0.02394   0.08504   0.14250   0.00000  Uiso   1.00
H311   H     0.84951   0.89638   0.19395   0.00000  Uiso   1.00
H312   H     0.96541   0.59915   0.27615   0.00000  Uiso   1.00
H313   H     0.07993   0.02289   0.06757   0.00000  Uiso   1.00
O314   O     0.79425   0.88190   0.12864   0.00000  Uiso   1.00
O315   O     0.94632   0.80390   0.23648   0.00000  Uiso   1.00
O316   O     0.09657   0.04785   0.96283   0.00000  Uiso   1.00
N317   N     0.82743   0.02467   0.08545   0.00000  Uiso   1.00
N318   N     0.93579   0.68171   0.16230   0.00000  Uiso   1.00
N319   N     0.04286   0.14298   0.96730   0.00000  Uiso   1.00
N320   N     0.84814   0.94748   0.16069   0.00000  Uiso   1.00
N321   N     0.95650   0.60452   0.23755   0.00000  Uiso   1.00
N322   N     0.06357   0.06579   0.04255   0.00000  Uiso   1.00
C323   C     0.93353   0.78985   0.56505   0.00000  Uiso   1.00
C324   C     0.90935   0.69789   0.58906   0.00000  Uiso   1.00
C325   C     0.87749   0.66358   0.56733   0.00000  Uiso   1.00
C326   C     0.85929   0.57812   0.59540   0.00000  Uiso   1.00
C327   C     0.81973   0.44287   0.62538   0.00000  Uiso   1.00
C328   C     0.93921   0.87898   0.61024   0.00000  Uiso   1.00
C329   C     0.93246   0.99692   0.60633   0.00000  Uiso   1.00
C330   C     0.93940   0.06389   0.65223   0.00000  Uiso   1.00
C331   C     0.94622   0.20980   0.71509   0.00000  Uiso   1.00
C332   C     0.96872   0.73049   0.55650   0.00000  Uiso   1.00
C333   C     0.98678   0.72360   0.50740   0.00000  Uiso   1.00
C334   C     0.01857   0.66558   0.50805   0.00000  Uiso   1.00
C335   C     0.07119   0.58094   0.48746   0.00000  Uiso   1.00
C336   C     0.95789   0.69909   0.65354   0.00000  Uiso   1.00
C337   C     0.92258   0.64860   0.63712   0.00000  Uiso   1.00
C338   C     0.90443   0.56316   0.66523   0.00000  Uiso   1.00
C339   C     0.87254   0.52872   0.64355   0.00000  Uiso   1.00
C340   C     0.95244   0.82968   0.65830   0.00000  Uiso   1.00
C341   C     0.95940   0.89650   0.70423   0.00000  Uiso   1.00
C342   C     0.95265   0.01451   0.70038   0.00000  Uiso   1.00
C343   C     0.98195   0.68119   0.60456   0.00000  Uiso   1.00
C344   C     0.01372   0.62318   0.60530   0.00000  Uiso   1.00
C345   C     0.03182   0.61620   0.55620   0.00000  Uiso   1.00
H346   H     0.92324   0.82824   0.52764   0.00000  Uiso   1.00
H347   H     0.86726   0.70176   0.53014   0.00000  Uiso   1.00
H348   H     0.92222   0.03505   0.56912   0.00000  Uiso   1.00
H349   H     0.97653   0.76176   0.47021   0.00000  Uiso   1.00
H350   H     0.81103   0.53982   0.55412   0.00000  Uiso   1.00
H351   H     0.92693   0.24259   0.63632   0.00000  Uiso   1.00
H352   H     0.04145   0.66632   0.42774   0.00000  Uiso   1.00
H353   H     0.96818   0.66071   0.69096   0.00000  Uiso   1.00
H354   H     0.91467   0.52502   0.70242   0.00000  Uiso   1.00
H355   H     0.96964   0.85832   0.74141   0.00000  Uiso   1.00
H356   H     0.02394   0.58504   0.64250   0.00000  Uiso   1.00
H357   H     0.84951   0.39638   0.69395   0.00000  Uiso   1.00
H358   H     0.96541   0.09915   0.77615   0.00000  Uiso   1.00
H359   H     0.07993   0.52289   0.56757   0.00000  Uiso   1.00
O360   O     0.79425   0.38190   0.62864   0.00000  Uiso   1.00
O361   O     0.94632   0.30390   0.73648   0.00000  Uiso   1.00
O362   O     0.09657   0.54785   0.46283   0.00000  Uiso   1.00
N363   N     0.82743   0.52467   0.58545   0.00000  Uiso   1.00
N364   N     0.93579   0.18171   0.66230   0.00000  Uiso   1.00
N365   N     0.04286   0.64298   0.46730   0.00000  Uiso   1.00
N366   N     0.84814   0.44748   0.66069   0.00000  Uiso   1.00
N367   N     0.95650   0.10452   0.73755   0.00000  Uiso   1.00
N368   N     0.06357   0.56579   0.54255   0.00000  Uiso   1.00
C369   C     0.81647   0.53985   0.81505   0.00000  Uiso   1.00
C370   C     0.84065   0.44789   0.83906   0.00000  Uiso   1.00
C371   C     0.87251   0.41358   0.81733   0.00000  Uiso   1.00
C372   C     0.89071   0.32812   0.84540   0.00000  Uiso   1.00
C373   C     0.93027   0.19287   0.87538   0.00000  Uiso   1.00
C374   C     0.81079   0.62898   0.86024   0.00000  Uiso   1.00
C375   C     0.81754   0.74692   0.85633   0.00000  Uiso   1.00
C376   C     0.81060   0.81389   0.90223   0.00000  Uiso   1.00
C377   C     0.80378   0.95980   0.96509   0.00000  Uiso   1.00
C378   C     0.78128   0.48049   0.80650   0.00000  Uiso   1.00
C379   C     0.76322   0.47360   0.75740   0.00000  Uiso   1.00
C380   C     0.73143   0.41558   0.75805   0.00000  Uiso   1.00
C381   C     0.67881   0.33094   0.73746   0.00000  Uiso   1.00
C382   C     0.79211   0.44909   0.90354   0.00000  Uiso   1.00
C383   C     0.82742   0.39860   0.88712   0.00000  Uiso   1.00
C384   C     0.84557   0.31316   0.91523   0.00000  Uiso   1.00
C385   C     0.87746   0.27872   0.89355   0.00000  Uiso   1.00
C386   C     0.79756   0.57968   0.90830   0.00000  Uiso   1.00
C387   C     0.79060   0.64650   0.95423   0.00000  Uiso   1.00
C388   C     0.79735   0.76451   0.95038   0.00000  Uiso   1.00
C389   C     0.76805   0.43119   0.85456   0.00000  Uiso   1.00
C390   C     0.73628   0.37318   0.85530   0.00000  Uiso   1.00
C391   C     0.71818   0.36620   0.80620   0.00000  Uiso   1.00
H392   H     0.82676   0.57824   0.77764   0.00000  Uiso   1.00
H393   H     0.88274   0.45176   0.78014   0.00000  Uiso   1.00
H394   H     0.82778   0.78505   0.81912   0.00000  Uiso   1.00
H395   H     0.77347   0.51176   0.72021   0.00000  Uiso   1.00
H396   H     0.93897   0.28982   0.80412   0.00000  Uiso   1.00
H397   H     0.82307   0.99259   0.88632   0.00000  Uiso   1.00
H398   H     0.70855   0.41632   0.67774   0.00000  Uiso   1.00
H399   H     0.78182   0.41071   0.94096   0.00000  Uiso   1.00
H400   H     0.83533   0.27502   0.95242   0.00000  Uiso   1.00
H401   H     0.78036   0.60832   0.99141   0.00000  Uiso   1.00
H402   H     0.72606   0.33504   0.89250   0.00000  Uiso   1.00
H403   H     0.90049   0.14638   0.94395   0.00000  Uiso   1.00
H404   H     0.78459   0.84915   0.02615   0.00000  Uiso   1.00
H405   H     0.67007   0.27289   0.81757   0.00000  Uiso   1.00
O406   O     0.95575   0.13190   0.87864   0.00000  Uiso   1.00
O407   O     0.80368   0.05390   0.98648   0.00000  Uiso   1.00
O408   O     0.65343   0.29785   0.71283   0.00000  Uiso   1.00
N409   N     0.92257   0.27467   0.83545   0.00000  Uiso   1.00
N410   N     0.81421   0.93171   0.91230   0.00000  Uiso   1.00
N411   N     0.70714   0.39298   0.71730   0.00000  Uiso   1.00
N412   N     0.90186   0.19748   0.91069   0.00000  Uiso   1.00
N413   N     0.79350   0.85452   0.98755   0.00000  Uiso   1.00
N414   N     0.68643   0.31579   0.79255   0.00000  Uiso   1.00
C415   C     0.81647   0.03985   0.31505   0.00000  Uiso   1.00
C416   C     0.84065   0.94789   0.33906   0.00000  Uiso   1.00
C417   C     0.87251   0.91358   0.31733   0.00000  Uiso   1.00
C418   C     0.89071   0.82812   0.34540   0.00000  Uiso   1.00
C419   C     0.93027   0.69287   0.37538   0.00000  Uiso   1.00
C420   C     0.81079   0.12898   0.36024   0.00000  Uiso   1.00
C421   C     0.81754   0.24692   0.35633   0.00000  Uiso   1.00
C422   C     0.81060   0.31389   0.40223   0.00000  Uiso   1.00
C423   C     0.80378   0.45980   0.46509   0.00000  Uiso   1.00
C424   C     0.78128   0.98049   0.30650   0.00000  Uiso   1.00
C425   C     0.76322   0.97360   0.25740   0.00000  Uiso   1.00
C426   C     0.73143   0.91558   0.25805   0.00000  Uiso   1.00
C427   C     0.67881   0.83094   0.23746   0.00000  Uiso   1.00
C428   C     0.79211   0.94909   0.40354   0.00000  Uiso   1.00
C429   C     0.82742   0.89860   0.38712   0.00000  Uiso   1.00
C430   C     0.84557   0.81316   0.41523   0.00000  Uiso   1.00
C431   C     0.87746   0.77872   0.39355   0.00000  Uiso   1.00
C432   C     0.79756   0.07968   0.40830   0.00000  Uiso   1.00
C433   C     0.79060   0.14650   0.45423   0.00000  Uiso   1.00
C434   C     0.79735   0.26451   0.45038   0.00000  Uiso   1.00
C435   C     0.76805   0.93119   0.35456   0.00000  Uiso   1.00
C436   C     0.73628   0.87318   0.35530   0.00000  Uiso   1.00
C437   C     0.71818   0.86620   0.30620   0.00000  Uiso   1.00
H438   H     0.82676   0.07824   0.27764   0.00000  Uiso   1.00
H439   H     0.88274   0.95176   0.28014   0.00000  Uiso   1.00
H440   H     0.82778   0.28505   0.31912   0.00000  Uiso   1.00
H441   H     0.77347   0.01176   0.22021   0.00000  Uiso   1.00
H442   H     0.93897   0.78982   0.30412   0.00000  Uiso   1.00
H443   H     0.82307   0.49259   0.38632   0.00000  Uiso   1.00
H444   H     0.70855   0.91632   0.17774   0.00000  Uiso   1.00
H445   H     0.78182   0.91071   0.44096   0.00000  Uiso   1.00
H446   H     0.83533   0.77502   0.45242   0.00000  Uiso   1.00
H447   H     0.78036   0.10832   0.49141   0.00000  Uiso   1.00
H448   H     0.72606   0.83504   0.39250   0.00000  Uiso   1.00
H449   H     0.90049   0.64638   0.44395   0.00000  Uiso   1.00
H450   H     0.78459   0.34915   0.52615   0.00000  Uiso   1.00
H451   H     0.67007   0.77289   0.31757   0.00000  Uiso   1.00
O452   O     0.95575   0.63190   0.37864   0.00000  Uiso   1.00
O453   O     0.80368   0.55390   0.48648   0.00000  Uiso   1.00
O454   O     0.65343   0.79785   0.21283   0.00000  Uiso   1.00
N455   N     0.92257   0.77467   0.33545   0.00000  Uiso   1.00
N456   N     0.81421   0.43171   0.41230   0.00000  Uiso   1.00
N457   N     0.70714   0.89298   0.21730   0.00000  Uiso   1.00
N458   N     0.90186   0.69748   0.41069   0.00000  Uiso   1.00
N459   N     0.79350   0.35452   0.48755   0.00000  Uiso   1.00
N460   N     0.68643   0.81579   0.29255   0.00000  Uiso   1.00
C461   C     0.31647   0.53985   0.31505   0.00000  Uiso   1.00
C462   C     0.34065   0.44789   0.33906   0.00000  Uiso   1.00
C463   C     0.37251   0.41358   0.31733   0.00000  Uiso   1.00
C464   C     0.39071   0.32812   0.34540   0.00000  Uiso   1.00
C465   C     0.43027   0.19287   0.37538   0.00000  Uiso   1.00
C466   C     0.31079   0.62898   0.36024   0.00000  Uiso   1.00
C467   C     0.31754   0.74692   0.35633   0.00000  Uiso   1.00
C468   C     0.31060   0.81389   0.40223   0.00000  Uiso   1.00
C469   C     0.30378   0.95980   0.46509   0.00000  Uiso   1.00
C470   C     0.28128   0.48049   0.30650   0.00000  Uiso   1.00
C471   C     0.26322   0.47360   0.25740   0.00000  Uiso   1.00
C472   C     0.23143   0.41558   0.25805   0.00000  Uiso   1.00
C473   C     0.17881   0.33094   0.23746   0.00000  Uiso   1.00
C474   C     0.29211   0.44909   0.40354   0.00000  Uiso   1.00
C475   C     0.32742   0.39860   0.38712   0.00000  Uiso   1.00
C476   C     0.34557   0.31316   0.41523   0.00000  Uiso   1.00
C477   C     0.37746   0.27872   0.39355   0.00000  Uiso   1.00
C478   C     0.29756   0.57968   0.40830   0.00000  Uiso   1.00
C479   C     0.29060   0.64650   0.45423   0.00000  Uiso   1.00
C480   C     0.29735   0.76451   0.45038   0.00000  Uiso   1.00
C481   C     0.26805   0.43119   0.35456   0.00000  Uiso   1.00
C482   C     0.23628   0.37318   0.35530   0.00000  Uiso   1.00
C483   C     0.21818   0.36620   0.30620   0.00000  Uiso   1.00
H484   H     0.32676   0.57824   0.27764   0.00000  Uiso   1.00
H485   H     0.38274   0.45176   0.28014   0.00000  Uiso   1.00
H486   H     0.32778   0.78505   0.31912   0.00000  Uiso   1.00
H487   H     0.27347   0.51176   0.22021   0.00000  Uiso   1.00
H488   H     0.43897   0.28982   0.30412   0.00000  Uiso   1.00
H489   H     0.32307   0.99259   0.38632   0.00000  Uiso   1.00
H490   H     0.20855   0.41632   0.17774   0.00000  Uiso   1.00
H491   H     0.28182   0.41071   0.44096   0.00000  Uiso   1.00
H492   H     0.33533   0.27502   0.45242   0.00000  Uiso   1.00
H493   H     0.28036   0.60832   0.49141   0.00000  Uiso   1.00
H494   H     0.22606   0.33504   0.39250   0.00000  Uiso   1.00
H495   H     0.40049   0.14638   0.44395   0.00000  Uiso   1.00
H496   H     0.28459   0.84915   0.52615   0.00000  Uiso   1.00
H497   H     0.17007   0.27289   0.31757   0.00000  Uiso   1.00
O498   O     0.45575   0.13190   0.37864   0.00000  Uiso   1.00
O499   O     0.30368   0.05390   0.48648   0.00000  Uiso   1.00
O500   O     0.15343   0.29785   0.21283   0.00000  Uiso   1.00
N501   N     0.42257   0.27467   0.33545   0.00000  Uiso   1.00
N502   N     0.31421   0.93171   0.41230   0.00000  Uiso   1.00
N503   N     0.20714   0.39298   0.21730   0.00000  Uiso   1.00
N504   N     0.40186   0.19748   0.41069   0.00000  Uiso   1.00
N505   N     0.29350   0.85452   0.48755   0.00000  Uiso   1.00
N506   N     0.18643   0.31579   0.29255   0.00000  Uiso   1.00
C507   C     0.31647   0.03985   0.81505   0.00000  Uiso   1.00
C508   C     0.34065   0.94789   0.83906   0.00000  Uiso   1.00
C509   C     0.37251   0.91358   0.81733   0.00000  Uiso   1.00
C510   C     0.39071   0.82812   0.84540   0.00000  Uiso   1.00
C511   C     0.43027   0.69287   0.87538   0.00000  Uiso   1.00
C512   C     0.31079   0.12898   0.86024   0.00000  Uiso   1.00
C513   C     0.31754   0.24692   0.85633   0.00000  Uiso   1.00
C514   C     0.31060   0.31389   0.90223   0.00000  Uiso   1.00
C515   C     0.30378   0.45980   0.96509   0.00000  Uiso   1.00
C516   C     0.28128   0.98049   0.80650   0.00000  Uiso   1.00
C517   C     0.26322   0.97360   0.75740   0.00000  Uiso   1.00
C518   C     0.23143   0.91558   0.75805   0.00000  Uiso   1.00
C519   C     0.17881   0.83094   0.73746   0.00000  Uiso   1.00
C520   C     0.29211   0.94909   0.90354   0.00000  Uiso   1.00
C521   C     0.32742   0.89860   0.88712   0.00000  Uiso   1.00
C522   C     0.34557   0.81316   0.91523   0.00000  Uiso   1.00
C523   C     0.37746   0.77872   0.89355   0.00000  Uiso   1.00
C524   C     0.29756   0.07968   0.90830   0.00000  Uiso   1.00
C525   C     0.29060   0.14650   0.95423   0.00000  Uiso   1.00
C526   C     0.29735   0.26451   0.95038   0.00000  Uiso   1.00
C527   C     0.26805   0.93119   0.85456   0.00000  Uiso   1.00
C528   C     0.23628   0.87318   0.85530   0.00000  Uiso   1.00
C529   C     0.21818   0.86620   0.80620   0.00000  Uiso   1.00
H530   H     0.32676   0.07824   0.77764   0.00000  Uiso   1.00
H531   H     0.38274   0.95176   0.78014   0.00000  Uiso   1.00
H532   H     0.32778   0.28505   0.81912   0.00000  Uiso   1.00
H533   H     0.27347   0.01176   0.72021   0.00000  Uiso   1.00
H534   H     0.43897   0.78982   0.80412   0.00000  Uiso   1.00
H535   H     0.32307   0.49259   0.88632   0.00000  Uiso   1.00
H536   H     0.20855   0.91632   0.67774   0.00000  Uiso   1.00
H537   H     0.28182   0.91071   0.94096   0.00000  Uiso   1.00
H538   H     0.33533   0.77502   0.95242   0.00000  Uiso   1.00
H539   H     0.28036   0.10832   0.99141   0.00000  Uiso   1.00
H540   H     0.22606   0.83504   0.89250   0.00000  Uiso   1.00
H541   H     0.40049   0.64638   0.94395   0.00000  Uiso   1.00
H542   H     0.28459   0.34915   0.02615   0.00000  Uiso   1.00
H543   H     0.17007   0.77289   0.81757   0.00000  Uiso   1.00
O544   O     0.45575   0.63190   0.87864   0.00000  Uiso   1.00
O545   O     0.30368   0.55390   0.98648   0.00000  Uiso   1.00
O546   O     0.15343   0.79785   0.71283   0.00000  Uiso   1.00
N547   N     0.42257   0.77467   0.83545   0.00000  Uiso   1.00
N548   N     0.31421   0.43171   0.91230   0.00000  Uiso   1.00
N549   N     0.20714   0.89298   0.71730   0.00000  Uiso   1.00
N550   N     0.40186   0.69748   0.91069   0.00000  Uiso   1.00
N551   N     0.29350   0.35452   0.98755   0.00000  Uiso   1.00
N552   N     0.18643   0.81579   0.79255   0.00000  Uiso   1.00
C553   C     0.68353   0.96015   0.81505   0.00000  Uiso   1.00
C554   C     0.65935   0.05211   0.83906   0.00000  Uiso   1.00
C555   C     0.62749   0.08642   0.81733   0.00000  Uiso   1.00
C556   C     0.60929   0.17188   0.84540   0.00000  Uiso   1.00
C557   C     0.56973   0.30713   0.87538   0.00000  Uiso   1.00
C558   C     0.68921   0.87102   0.86024   0.00000  Uiso   1.00
C559   C     0.68246   0.75308   0.85633   0.00000  Uiso   1.00
C560   C     0.68940   0.68611   0.90223   0.00000  Uiso   1.00
C561   C     0.69622   0.54020   0.96509   0.00000  Uiso   1.00
C562   C     0.71872   0.01951   0.80650   0.00000  Uiso   1.00
C563   C     0.73678   0.02640   0.75740   0.00000  Uiso   1.00
C564   C     0.76857   0.08442   0.75805   0.00000  Uiso   1.00
C565   C     0.82119   0.16906   0.73746   0.00000  Uiso   1.00
C566   C     0.70789   0.05091   0.90354   0.00000  Uiso   1.00
C567   C     0.67258   0.10140   0.88712   0.00000  Uiso   1.00
C568   C     0.65443   0.18684   0.91523   0.00000  Uiso   1.00
C569   C     0.62254   0.22128   0.89355   0.00000  Uiso   1.00
C570   C     0.70244   0.92032   0.90830   0.00000  Uiso   1.00
C571   C     0.70940   0.85350   0.95423   0.00000  Uiso   1.00
C572   C     0.70265   0.73549   0.95038   0.00000  Uiso   1.00
C573   C     0.73195   0.06881   0.85456   0.00000  Uiso   1.00
C574   C     0.76372   0.12682   0.85530   0.00000  Uiso   1.00
C575   C     0.78182   0.13380   0.80620   0.00000  Uiso   1.00
H576   H     0.67324   0.92176   0.77764   0.00000  Uiso   1.00
H577   H     0.61726   0.04824   0.78014   0.00000  Uiso   1.00
H578   H     0.67222   0.71495   0.81912   0.00000  Uiso   1.00
H579   H     0.72653   0.98824   0.72021   0.00000  Uiso   1.00
H580   H     0.56103   0.21018   0.80412   0.00000  Uiso   1.00
H581   H     0.67693   0.50741   0.88632   0.00000  Uiso   1.00
H582   H     0.79145   0.08368   0.67774   0.00000  Uiso   1.00
H583   H     0.71818   0.08929   0.94096   0.00000  Uiso   1.00
H584   H     0.66467   0.22498   0.95242   0.00000  Uiso   1.00
H585   H     0.71964   0.89168   0.99141   0.00000  Uiso   1.00
H586   H     0.77394   0.16496   0.89250   0.00000  Uiso   1.00
H587   H     0.59951   0.35362   0.94395   0.00000  Uiso   1.00
H588   H     0.71541   0.65085   0.02615   0.00000  Uiso   1.00
H589   H     0.82993   0.22711   0.81757   0.00000  Uiso   1.00
O590   O     0.54425   0.36810   0.87864   0.00000  Uiso   1.00
O591   O     0.69632   0.44610   0.98648   0.00000  Uiso   1.00
O592   O     0.84657   0.20215   0.71283   0.00000  Uiso   1.00
N593   N     0.57743   0.22533   0.83545   0.00000  Uiso   1.00
N594   N     0.68579   0.56829   0.91230   0.00000  Uiso   1.00
N595   N     0.79286   0.10702   0.71730   0.00000  Uiso   1.00
N596   N     0.59814   0.30252   0.91069   0.00000  Uiso   1.00
N597   N     0.70650   0.64548   0.98755   0.00000  Uiso   1.00
N598   N     0.81357   0.18421   0.79255   0.00000  Uiso   1.00
C599   C     0.68353   0.46015   0.31505   0.00000  Uiso   1.00
C600   C     0.65935   0.55211   0.33906   0.00000  Uiso   1.00
C601   C     0.62749   0.58642   0.31733   0.00000  Uiso   1.00
C602   C     0.60929   0.67188   0.34540   0.00000  Uiso   1.00
C603   C     0.56973   0.80713   0.37538   0.00000  Uiso   1.00
C604   C     0.68921   0.37102   0.36024   0.00000  Uiso   1.00
C605   C     0.68246   0.25308   0.35633   0.00000  Uiso   1.00
C606   C     0.68940   0.18611   0.40223   0.00000  Uiso   1.00
C607   C     0.69622   0.04020   0.46509   0.00000  Uiso   1.00
C608   C     0.71872   0.51951   0.30650   0.00000  Uiso   1.00
C609   C     0.73678   0.52640   0.25740   0.00000  Uiso   1.00
C610   C     0.76857   0.58442   0.25805   0.00000  Uiso   1.00
C611   C     0.82119   0.66906   0.23746   0.00000  Uiso   1.00
C612   C     0.70789   0.55091   0.40354   0.00000  Uiso   1.00
C613   C     0.67258   0.60140   0.38712   0.00000  Uiso   1.00
C614   C     0.65443   0.68684   0.41523   0.00000  Uiso   1.00
C615   C     0.62254   0.72128   0.39355   0.00000  Uiso   1.00
C616   C     0.70244   0.42032   0.40830   0.00000  Uiso   1.00
C617   C     0.70940   0.35350   0.45423   0.00000  Uiso   1.00
C618   C     0.70265   0.23549   0.45038   0.00000  Uiso   1.00
C619   C     0.73195   0.56881   0.35456   0.00000  Uiso   1.00
C620   C     0.76372   0.62682   0.35530   0.00000  Uiso   1.00
C621   C     0.78182   0.63380   0.30620   0.00000  Uiso   1.00
H622   H     0.67324   0.42176   0.27764   0.00000  Uiso   1.00
H623   H     0.61726   0.54824   0.28014   0.00000  Uiso   1.00
H624   H     0.67222   0.21495   0.31912   0.00000  Uiso   1.00
H625   H     0.72653   0.48824   0.22021   0.00000  Uiso   1.00
H626   H     0.56103   0.71018   0.30412   0.00000  Uiso   1.00
H627   H     0.67693   0.00741   0.38632   0.00000  Uiso   1.00
H628   H     0.79145   0.58368   0.17774   0.00000  Uiso   1.00
H629   H     0.71818   0.58929   0.44096   0.00000  Uiso   1.00
H630   H     0.66467   0.72498   0.45242   0.00000  Uiso   1.00
H631   H     0.71964   0.39168   0.49141   0.00000  Uiso   1.00
H632   H     0.77394   0.66496   0.39250   0.00000  Uiso   1.00
H633   H     0.59951   0.85362   0.44395   0.00000  Uiso   1.00
H634   H     0.71541   0.15085   0.52615   0.00000  Uiso   1.00
H635   H     0.82993   0.72711   0.31757   0.00000  Uiso   1.00
O636   O     0.54425   0.86810   0.37864   0.00000  Uiso   1.00
O637   O     0.69632   0.94610   0.48648   0.00000  Uiso   1.00
O638   O     0.84657   0.70215   0.21283   0.00000  Uiso   1.00
N639   N     0.57743   0.72533   0.33545   0.00000  Uiso   1.00
N640   N     0.68579   0.06829   0.41230   0.00000  Uiso   1.00
N641   N     0.79286   0.60702   0.21730   0.00000  Uiso   1.00
N642   N     0.59814   0.80252   0.41069   0.00000  Uiso   1.00
N643   N     0.70650   0.14548   0.48755   0.00000  Uiso   1.00
N644   N     0.81357   0.68421   0.29255   0.00000  Uiso   1.00
C645   C     0.18353   0.96015   0.31505   0.00000  Uiso   1.00
C646   C     0.15935   0.05211   0.33906   0.00000  Uiso   1.00
C647   C     0.12749   0.08642   0.31733   0.00000  Uiso   1.00
C648   C     0.10929   0.17188   0.34540   0.00000  Uiso   1.00
C649   C     0.06973   0.30713   0.37538   0.00000  Uiso   1.00
C650   C     0.18921   0.87102   0.36024   0.00000  Uiso   1.00
C651   C     0.18246   0.75308   0.35633   0.00000  Uiso   1.00
C652   C     0.18940   0.68611   0.40223   0.00000  Uiso   1.00
C653   C     0.19622   0.54020   0.46509   0.00000  Uiso   1.00
C654   C     0.21872   0.01951   0.30650   0.00000  Uiso   1.00
C655   C     0.23678   0.02640   0.25740   0.00000  Uiso   1.00
C656   C     0.26857   0.08442   0.25805   0.00000  Uiso   1.00
C657   C     0.32119   0.16906   0.23746   0.00000  Uiso   1.00
C658   C     0.20789   0.05091   0.40354   0.00000  Uiso   1.00
C659   C     0.17258   0.10140   0.38712   0.00000  Uiso   1.00
C660   C     0.15443   0.18684   0.41523   0.00000  Uiso   1.00
C661   C     0.12254   0.22128   0.39355   0.00000  Uiso   1.00
C662   C     0.20244   0.92032   0.40830   0.00000  Uiso   1.00
C663   C     0.20940   0.85350   0.45423   0.00000  Uiso   1.00
C664   C     0.20265   0.73549   0.45038   0.00000  Uiso   1.00
C665   C     0.23195   0.06881   0.35456   0.00000  Uiso   1.00
C666   C     0.26372   0.12682   0.35530   0.00000  Uiso   1.00
C667   C     0.28182   0.13380   0.30620   0.00000  Uiso   1.00
H668   H     0.17324   0.92176   0.27764   0.00000  Uiso   1.00
H669   H     0.11726   0.04824   0.28014   0.00000  Uiso   1.00
H670   H     0.17222   0.71495   0.31912   0.00000  Uiso   1.00
H671   H     0.22653   0.98824   0.22021   0.00000  Uiso   1.00
H672   H     0.06103   0.21018   0.30412   0.00000  Uiso   1.00
H673   H     0.17693   0.50741   0.38632   0.00000  Uiso   1.00
H674   H     0.29145   0.08368   0.17774   0.00000  Uiso   1.00
H675   H     0.21818   0.08929   0.44096   0.00000  Uiso   1.00
H676   H     0.16467   0.22498   0.45242   0.00000  Uiso   1.00
H677   H     0.21964   0.89168   0.49141   0.00000  Uiso   1.00
H678   H     0.27394   0.16496   0.39250   0.00000  Uiso   1.00
H679   H     0.09951   0.35362   0.44395   0.00000  Uiso   1.00
H680   H     0.21541   0.65085   0.52615   0.00000  Uiso   1.00
H681   H     0.32993   0.22711   0.31757   0.00000  Uiso   1.00
O682   O     0.04425   0.36810   0.37864   0.00000  Uiso   1.00
O683   O     0.19632   0.44610   0.48648   0.00000  Uiso   1.00
O684   O     0.34657   0.20215   0.21283   0.00000  Uiso   1.00
N685   N     0.07743   0.22533   0.33545   0.00000  Uiso   1.00
N686   N     0.18579   0.56829   0.41230   0.00000  Uiso   1.00
N687   N     0.29286   0.10702   0.21730   0.00000  Uiso   1.00
N688   N     0.09814   0.30252   0.41069   0.00000  Uiso   1.00
N689   N     0.20650   0.64548   0.48755   0.00000  Uiso   1.00
N690   N     0.31357   0.18421   0.29255   0.00000  Uiso   1.00
C691   C     0.18353   0.46015   0.81505   0.00000  Uiso   1.00
C692   C     0.15935   0.55211   0.83906   0.00000  Uiso   1.00
C693   C     0.12749   0.58642   0.81733   0.00000  Uiso   1.00
C694   C     0.10929   0.67188   0.84540   0.00000  Uiso   1.00
C695   C     0.06973   0.80713   0.87538   0.00000  Uiso   1.00
C696   C     0.18921   0.37102   0.86024   0.00000  Uiso   1.00
C697   C     0.18246   0.25308   0.85633   0.00000  Uiso   1.00
C698   C     0.18940   0.18611   0.90223   0.00000  Uiso   1.00
C699   C     0.19622   0.04020   0.96509   0.00000  Uiso   1.00
C700   C     0.21872   0.51951   0.80650   0.00000  Uiso   1.00
C701   C     0.23678   0.52640   0.75740   0.00000  Uiso   1.00
C702   C     0.26857   0.58442   0.75805   0.00000  Uiso   1.00
C703   C     0.32119   0.66906   0.73746   0.00000  Uiso   1.00
C704   C     0.20789   0.55091   0.90354   0.00000  Uiso   1.00
C705   C     0.17258   0.60140   0.88712   0.00000  Uiso   1.00
C706   C     0.15443   0.68684   0.91523   0.00000  Uiso   1.00
C707   C     0.12254   0.72128   0.89355   0.00000  Uiso   1.00
C708   C     0.20244   0.42032   0.90830   0.00000  Uiso   1.00
C709   C     0.20940   0.35350   0.95423   0.00000  Uiso   1.00
C710   C     0.20265   0.23549   0.95038   0.00000  Uiso   1.00
C711   C     0.23195   0.56881   0.85456   0.00000  Uiso   1.00
C712   C     0.26372   0.62682   0.85530   0.00000  Uiso   1.00
C713   C     0.28182   0.63380   0.80620   0.00000  Uiso   1.00
H714   H     0.17324   0.42176   0.77764   0.00000  Uiso   1.00
H715   H     0.11726   0.54824   0.78014   0.00000  Uiso   1.00
H716   H     0.17222   0.21495   0.81912   0.00000  Uiso   1.00
H717   H     0.22653   0.48824   0.72021   0.00000  Uiso   1.00
H718   H     0.06103   0.71018   0.80412   0.00000  Uiso   1.00
H719   H     0.17693   0.00741   0.88632   0.00000  Uiso   1.00
H720   H     0.29145   0.58368   0.67774   0.00000  Uiso   1.00
H721   H     0.21818   0.58929   0.94096   0.00000  Uiso   1.00
H722   H     0.16467   0.72498   0.95242   0.00000  Uiso   1.00
H723   H     0.21964   0.39168   0.99141   0.00000  Uiso   1.00
H724   H     0.27394   0.66496   0.89250   0.00000  Uiso   1.00
H725   H     0.09951   0.85362   0.94395   0.00000  Uiso   1.00
H726   H     0.21541   0.15085   0.02615   0.00000  Uiso   1.00
H727   H     0.32993   0.72711   0.81757   0.00000  Uiso   1.00
O728   O     0.04425   0.86810   0.87864   0.00000  Uiso   1.00
O729   O     0.19632   0.94610   0.98648   0.00000  Uiso   1.00
O730   O     0.34657   0.70215   0.71283   0.00000  Uiso   1.00
N731   N     0.07743   0.72533   0.83545   0.00000  Uiso   1.00
N732   N     0.18579   0.06829   0.91230   0.00000  Uiso   1.00
N733   N     0.29286   0.60702   0.71730   0.00000  Uiso   1.00
N734   N     0.09814   0.80252   0.91069   0.00000  Uiso   1.00
N735   N     0.20650   0.14548   0.98755   0.00000  Uiso   1.00
N736   N     0.31357   0.68421   0.79255   0.00000  Uiso   1.00
