data_job_03369
_audit_creation_date              2018-12-19
_audit_creation_method            'Materials Studio'
_symmetry_space_group_name_H-M    'P1'
_symmetry_Int_Tables_number       1
_symmetry_cell_setting            triclinic
loop_
_symmetry_equiv_pos_as_xyz
  x,y,z
_cell_length_a                    28.0311
_cell_length_b                    28.0311
_cell_length_c                    20.2707
_cell_angle_alpha                 90.0000
_cell_angle_beta                  90.0000
_cell_angle_gamma                 90.0000
loop_
_atom_site_label
_atom_site_type_symbol
_atom_site_fract_x
_atom_site_fract_y
_atom_site_fract_z
_atom_site_U_iso_or_equiv
_atom_site_adp_type
_atom_site_occupancy
C1     C     0.09404   0.03237   0.18940   0.00000  Uiso   1.00
C2     C     0.14706   0.02406   0.17713   0.00000  Uiso   1.00
C3     C     0.16665   0.00247   0.12179   0.00000  Uiso   1.00
C4     C     0.21597   0.99821   0.11990   0.00000  Uiso   1.00
C5     C     0.29395   0.98274   0.09301   0.00000  Uiso   1.00
C6     C     0.08281   0.00836   0.25509   0.00000  Uiso   1.00
C7     C     0.04836   0.97357   0.26530   0.00000  Uiso   1.00
C8     C     0.04359   0.95608   0.32905   0.00000  Uiso   1.00
C9     C     0.02179   0.91625   0.42320   0.00000  Uiso   1.00
C10    C     0.08841   0.08581   0.20112   0.00000  Uiso   1.00
C11    C     0.05866   0.11614   0.16597   0.00000  Uiso   1.00
C12    C     0.05860   0.16387   0.18430   0.00000  Uiso   1.00
C13    C     0.04549   0.24430   0.19466   0.00000  Uiso   1.00
C14    C     0.14681   0.06319   0.28446   0.00000  Uiso   1.00
C15    C     0.17573   0.04080   0.22876   0.00000  Uiso   1.00
C16    C     0.22504   0.03657   0.22696   0.00000  Uiso   1.00
C17    C     0.24469   0.01498   0.17163   0.00000  Uiso   1.00
C18    C     0.11147   0.02509   0.30672   0.00000  Uiso   1.00
C19    C     0.10675   0.00766   0.37047   0.00000  Uiso   1.00
C20    C     0.07231   0.97285   0.38077   0.00000  Uiso   1.00
C21    C     0.11707   0.10255   0.25275   0.00000  Uiso   1.00
C22    C     0.11706   0.15024   0.27114   0.00000  Uiso   1.00
C23    C     0.08732   0.18064   0.23602   0.00000  Uiso   1.00
H24    H     0.07172   0.01934   0.14921   0.00000  Uiso   1.00
H25    H     0.14445   0.98952   0.08185   0.00000  Uiso   1.00
H26    H     0.02618   0.96062   0.22534   0.00000  Uiso   1.00
H27    H     0.03648   0.10318   0.12602   0.00000  Uiso   1.00
H28    H     0.23773   0.96383   0.02995   0.00000  Uiso   1.00
H29    H     0.98834   0.90291   0.33250   0.00000  Uiso   1.00
H30    H     0.01006   0.20351   0.12308   0.00000  Uiso   1.00
H31    H     0.16913   0.07622   0.32466   0.00000  Uiso   1.00
H32    H     0.24721   0.04952   0.26692   0.00000  Uiso   1.00
H33    H     0.12894   0.02062   0.41041   0.00000  Uiso   1.00
H34    H     0.13924   0.16318   0.31110   0.00000  Uiso   1.00
H35    H     0.32113   0.01252   0.18016   0.00000  Uiso   1.00
H36    H     0.07174   0.95160   0.48272   0.00000  Uiso   1.00
H37    H     0.09347   0.25221   0.27330   0.00000  Uiso   1.00
O38    O     0.32903   0.96957   0.06392   0.00000  Uiso   1.00
O39    O     0.00184   0.88966   0.46087   0.00000  Uiso   1.00
O40    O     0.03034   0.28404   0.18611   0.00000  Uiso   1.00
N41    N     0.24664   0.97896   0.07322   0.00000  Uiso   1.00
N42    N     0.01348   0.92200   0.35609   0.00000  Uiso   1.00
N43    N     0.03378   0.20304   0.16031   0.00000  Uiso   1.00
N44    N     0.29152   0.00516   0.15405   0.00000  Uiso   1.00
N45    N     0.05836   0.94820   0.43692   0.00000  Uiso   1.00
N46    N     0.07866   0.22924   0.24114   0.00000  Uiso   1.00
C47    C     0.59404   0.53237   0.68940   0.00000  Uiso   1.00
C48    C     0.64706   0.52406   0.67713   0.00000  Uiso   1.00
C49    C     0.66665   0.50247   0.62179   0.00000  Uiso   1.00
C50    C     0.71597   0.49821   0.61990   0.00000  Uiso   1.00
C51    C     0.79395   0.48274   0.59301   0.00000  Uiso   1.00
C52    C     0.58281   0.50836   0.75509   0.00000  Uiso   1.00
C53    C     0.54836   0.47357   0.76530   0.00000  Uiso   1.00
C54    C     0.54359   0.45608   0.82905   0.00000  Uiso   1.00
C55    C     0.52179   0.41625   0.92320   0.00000  Uiso   1.00
C56    C     0.58841   0.58581   0.70112   0.00000  Uiso   1.00
C57    C     0.55866   0.61614   0.66597   0.00000  Uiso   1.00
C58    C     0.55860   0.66387   0.68430   0.00000  Uiso   1.00
C59    C     0.54549   0.74430   0.69466   0.00000  Uiso   1.00
C60    C     0.64681   0.56319   0.78446   0.00000  Uiso   1.00
C61    C     0.67573   0.54080   0.72876   0.00000  Uiso   1.00
C62    C     0.72504   0.53657   0.72696   0.00000  Uiso   1.00
C63    C     0.74469   0.51498   0.67163   0.00000  Uiso   1.00
C64    C     0.61147   0.52509   0.80672   0.00000  Uiso   1.00
C65    C     0.60675   0.50766   0.87047   0.00000  Uiso   1.00
C66    C     0.57231   0.47285   0.88077   0.00000  Uiso   1.00
C67    C     0.61707   0.60255   0.75275   0.00000  Uiso   1.00
C68    C     0.61706   0.65024   0.77114   0.00000  Uiso   1.00
C69    C     0.58732   0.68064   0.73602   0.00000  Uiso   1.00
H70    H     0.57172   0.51934   0.64921   0.00000  Uiso   1.00
H71    H     0.64445   0.48952   0.58185   0.00000  Uiso   1.00
H72    H     0.52618   0.46062   0.72534   0.00000  Uiso   1.00
H73    H     0.53648   0.60318   0.62602   0.00000  Uiso   1.00
H74    H     0.73773   0.46383   0.52995   0.00000  Uiso   1.00
H75    H     0.48834   0.40291   0.83250   0.00000  Uiso   1.00
H76    H     0.51006   0.70351   0.62308   0.00000  Uiso   1.00
H77    H     0.66913   0.57622   0.82466   0.00000  Uiso   1.00
H78    H     0.74721   0.54952   0.76692   0.00000  Uiso   1.00
H79    H     0.62894   0.52062   0.91041   0.00000  Uiso   1.00
H80    H     0.63924   0.66318   0.81110   0.00000  Uiso   1.00
H81    H     0.82113   0.51252   0.68016   0.00000  Uiso   1.00
H82    H     0.57174   0.45160   0.98272   0.00000  Uiso   1.00
H83    H     0.59347   0.75221   0.77330   0.00000  Uiso   1.00
O84    O     0.82903   0.46957   0.56392   0.00000  Uiso   1.00
O85    O     0.50184   0.38966   0.96087   0.00000  Uiso   1.00
O86    O     0.53034   0.78404   0.68611   0.00000  Uiso   1.00
N87    N     0.74664   0.47896   0.57322   0.00000  Uiso   1.00
N88    N     0.51348   0.42200   0.85609   0.00000  Uiso   1.00
N89    N     0.53378   0.70304   0.66031   0.00000  Uiso   1.00
N90    N     0.79152   0.50516   0.65405   0.00000  Uiso   1.00
N91    N     0.55836   0.44820   0.93692   0.00000  Uiso   1.00
N92    N     0.57866   0.72924   0.74114   0.00000  Uiso   1.00
C93    C     0.40596   0.46763   0.68940   0.00000  Uiso   1.00
C94    C     0.35294   0.47594   0.67713   0.00000  Uiso   1.00
C95    C     0.33335   0.49753   0.62179   0.00000  Uiso   1.00
C96    C     0.28403   0.50179   0.61990   0.00000  Uiso   1.00
C97    C     0.20605   0.51726   0.59301   0.00000  Uiso   1.00
C98    C     0.41719   0.49164   0.75509   0.00000  Uiso   1.00
C99    C     0.45164   0.52643   0.76530   0.00000  Uiso   1.00
C100   C     0.45641   0.54392   0.82905   0.00000  Uiso   1.00
C101   C     0.47821   0.58375   0.92320   0.00000  Uiso   1.00
C102   C     0.41159   0.41419   0.70112   0.00000  Uiso   1.00
C103   C     0.44134   0.38386   0.66597   0.00000  Uiso   1.00
C104   C     0.44140   0.33613   0.68430   0.00000  Uiso   1.00
C105   C     0.45451   0.25570   0.69466   0.00000  Uiso   1.00
C106   C     0.35319   0.43681   0.78446   0.00000  Uiso   1.00
C107   C     0.32427   0.45920   0.72876   0.00000  Uiso   1.00
C108   C     0.27496   0.46343   0.72696   0.00000  Uiso   1.00
C109   C     0.25531   0.48502   0.67163   0.00000  Uiso   1.00
C110   C     0.38853   0.47491   0.80672   0.00000  Uiso   1.00
C111   C     0.39325   0.49234   0.87047   0.00000  Uiso   1.00
C112   C     0.42769   0.52715   0.88077   0.00000  Uiso   1.00
C113   C     0.38293   0.39745   0.75275   0.00000  Uiso   1.00
C114   C     0.38294   0.34976   0.77114   0.00000  Uiso   1.00
C115   C     0.41268   0.31936   0.73602   0.00000  Uiso   1.00
H116   H     0.42828   0.48066   0.64921   0.00000  Uiso   1.00
H117   H     0.35555   0.51048   0.58185   0.00000  Uiso   1.00
H118   H     0.47382   0.53938   0.72534   0.00000  Uiso   1.00
H119   H     0.46352   0.39682   0.62602   0.00000  Uiso   1.00
H120   H     0.26227   0.53617   0.52995   0.00000  Uiso   1.00
H121   H     0.51166   0.59709   0.83250   0.00000  Uiso   1.00
H122   H     0.48994   0.29649   0.62308   0.00000  Uiso   1.00
H123   H     0.33087   0.42378   0.82466   0.00000  Uiso   1.00
H124   H     0.25279   0.45048   0.76692   0.00000  Uiso   1.00
H125   H     0.37106   0.47938   0.91041   0.00000  Uiso   1.00
H126   H     0.36076   0.33682   0.81110   0.00000  Uiso   1.00
H127   H     0.17887   0.48748   0.68016   0.00000  Uiso   1.00
H128   H     0.42826   0.54840   0.98272   0.00000  Uiso   1.00
H129   H     0.40653   0.24779   0.77330   0.00000  Uiso   1.00
O130   O     0.17097   0.53043   0.56392   0.00000  Uiso   1.00
O131   O     0.49816   0.61034   0.96087   0.00000  Uiso   1.00
O132   O     0.46966   0.21596   0.68611   0.00000  Uiso   1.00
N133   N     0.25336   0.52104   0.57322   0.00000  Uiso   1.00
N134   N     0.48652   0.57800   0.85609   0.00000  Uiso   1.00
N135   N     0.46622   0.29696   0.66031   0.00000  Uiso   1.00
N136   N     0.20848   0.49484   0.65405   0.00000  Uiso   1.00
N137   N     0.44164   0.55180   0.93692   0.00000  Uiso   1.00
N138   N     0.42134   0.27076   0.74114   0.00000  Uiso   1.00
C139   C     0.90596   0.96763   0.18940   0.00000  Uiso   1.00
C140   C     0.85294   0.97594   0.17713   0.00000  Uiso   1.00
C141   C     0.83335   0.99753   0.12179   0.00000  Uiso   1.00
C142   C     0.78403   0.00179   0.11990   0.00000  Uiso   1.00
C143   C     0.70605   0.01726   0.09301   0.00000  Uiso   1.00
C144   C     0.91719   0.99164   0.25509   0.00000  Uiso   1.00
C145   C     0.95164   0.02643   0.26530   0.00000  Uiso   1.00
C146   C     0.95641   0.04392   0.32905   0.00000  Uiso   1.00
C147   C     0.97821   0.08375   0.42320   0.00000  Uiso   1.00
C148   C     0.91159   0.91419   0.20112   0.00000  Uiso   1.00
C149   C     0.94134   0.88386   0.16597   0.00000  Uiso   1.00
C150   C     0.94140   0.83613   0.18430   0.00000  Uiso   1.00
C151   C     0.95451   0.75570   0.19466   0.00000  Uiso   1.00
C152   C     0.85319   0.93681   0.28446   0.00000  Uiso   1.00
C153   C     0.82427   0.95920   0.22876   0.00000  Uiso   1.00
C154   C     0.77496   0.96343   0.22696   0.00000  Uiso   1.00
C155   C     0.75531   0.98502   0.17163   0.00000  Uiso   1.00
C156   C     0.88853   0.97491   0.30672   0.00000  Uiso   1.00
C157   C     0.89325   0.99234   0.37047   0.00000  Uiso   1.00
C158   C     0.92769   0.02715   0.38077   0.00000  Uiso   1.00
C159   C     0.88293   0.89745   0.25275   0.00000  Uiso   1.00
C160   C     0.88294   0.84976   0.27114   0.00000  Uiso   1.00
C161   C     0.91268   0.81936   0.23602   0.00000  Uiso   1.00
H162   H     0.92828   0.98066   0.14921   0.00000  Uiso   1.00
H163   H     0.85555   0.01048   0.08185   0.00000  Uiso   1.00
H164   H     0.97382   0.03938   0.22534   0.00000  Uiso   1.00
H165   H     0.96352   0.89682   0.12602   0.00000  Uiso   1.00
H166   H     0.76227   0.03617   0.02995   0.00000  Uiso   1.00
H167   H     0.01166   0.09709   0.33250   0.00000  Uiso   1.00
H168   H     0.98994   0.79649   0.12308   0.00000  Uiso   1.00
H169   H     0.83087   0.92378   0.32466   0.00000  Uiso   1.00
H170   H     0.75279   0.95048   0.26692   0.00000  Uiso   1.00
H171   H     0.87106   0.97938   0.41041   0.00000  Uiso   1.00
H172   H     0.86076   0.83682   0.31110   0.00000  Uiso   1.00
H173   H     0.67887   0.98748   0.18016   0.00000  Uiso   1.00
H174   H     0.92826   0.04840   0.48272   0.00000  Uiso   1.00
H175   H     0.90653   0.74779   0.27330   0.00000  Uiso   1.00
O176   O     0.67097   0.03043   0.06392   0.00000  Uiso   1.00
O177   O     0.99816   0.11034   0.46087   0.00000  Uiso   1.00
O178   O     0.96966   0.71596   0.18611   0.00000  Uiso   1.00
N179   N     0.75336   0.02104   0.07322   0.00000  Uiso   1.00
N180   N     0.98652   0.07800   0.35609   0.00000  Uiso   1.00
N181   N     0.96622   0.79696   0.16031   0.00000  Uiso   1.00
N182   N     0.70848   0.99484   0.15405   0.00000  Uiso   1.00
N183   N     0.94164   0.05180   0.43692   0.00000  Uiso   1.00
N184   N     0.92134   0.77076   0.24114   0.00000  Uiso   1.00
C185   C     0.96763   0.59404   0.43940   0.00000  Uiso   1.00
C186   C     0.97594   0.64706   0.42713   0.00000  Uiso   1.00
C187   C     0.99753   0.66665   0.37179   0.00000  Uiso   1.00
C188   C     0.00179   0.71597   0.36990   0.00000  Uiso   1.00
C189   C     0.01726   0.79395   0.34301   0.00000  Uiso   1.00
C190   C     0.99164   0.58281   0.50509   0.00000  Uiso   1.00
C191   C     0.02643   0.54836   0.51530   0.00000  Uiso   1.00
C192   C     0.04392   0.54359   0.57905   0.00000  Uiso   1.00
C193   C     0.08375   0.52179   0.67320   0.00000  Uiso   1.00
C194   C     0.91419   0.58841   0.45112   0.00000  Uiso   1.00
C195   C     0.88386   0.55866   0.41597   0.00000  Uiso   1.00
C196   C     0.83613   0.55860   0.43430   0.00000  Uiso   1.00
C197   C     0.75570   0.54549   0.44466   0.00000  Uiso   1.00
C198   C     0.93681   0.64681   0.53446   0.00000  Uiso   1.00
C199   C     0.95920   0.67573   0.47876   0.00000  Uiso   1.00
C200   C     0.96343   0.72504   0.47696   0.00000  Uiso   1.00
C201   C     0.98502   0.74469   0.42163   0.00000  Uiso   1.00
C202   C     0.97491   0.61147   0.55672   0.00000  Uiso   1.00
C203   C     0.99234   0.60675   0.62047   0.00000  Uiso   1.00
C204   C     0.02715   0.57231   0.63077   0.00000  Uiso   1.00
C205   C     0.89745   0.61707   0.50275   0.00000  Uiso   1.00
C206   C     0.84976   0.61706   0.52114   0.00000  Uiso   1.00
C207   C     0.81936   0.58732   0.48602   0.00000  Uiso   1.00
H208   H     0.98066   0.57172   0.39921   0.00000  Uiso   1.00
H209   H     0.01048   0.64445   0.33185   0.00000  Uiso   1.00
H210   H     0.03938   0.52618   0.47534   0.00000  Uiso   1.00
H211   H     0.89682   0.53648   0.37602   0.00000  Uiso   1.00
H212   H     0.03617   0.73773   0.27995   0.00000  Uiso   1.00
H213   H     0.09709   0.48834   0.58250   0.00000  Uiso   1.00
H214   H     0.79649   0.51006   0.37308   0.00000  Uiso   1.00
H215   H     0.92378   0.66913   0.57466   0.00000  Uiso   1.00
H216   H     0.95048   0.74721   0.51692   0.00000  Uiso   1.00
H217   H     0.97938   0.62894   0.66041   0.00000  Uiso   1.00
H218   H     0.83682   0.63924   0.56110   0.00000  Uiso   1.00
H219   H     0.98748   0.82113   0.43016   0.00000  Uiso   1.00
H220   H     0.04840   0.57174   0.73272   0.00000  Uiso   1.00
H221   H     0.74779   0.59347   0.52330   0.00000  Uiso   1.00
O222   O     0.03043   0.82903   0.31392   0.00000  Uiso   1.00
O223   O     0.11034   0.50184   0.71087   0.00000  Uiso   1.00
O224   O     0.71596   0.53034   0.43611   0.00000  Uiso   1.00
N225   N     0.02104   0.74664   0.32322   0.00000  Uiso   1.00
N226   N     0.07800   0.51348   0.60609   0.00000  Uiso   1.00
N227   N     0.79696   0.53378   0.41031   0.00000  Uiso   1.00
N228   N     0.99484   0.79152   0.40405   0.00000  Uiso   1.00
N229   N     0.05180   0.55836   0.68692   0.00000  Uiso   1.00
N230   N     0.77076   0.57866   0.49114   0.00000  Uiso   1.00
C231   C     0.46763   0.09404   0.93940   0.00000  Uiso   1.00
C232   C     0.47594   0.14706   0.92713   0.00000  Uiso   1.00
C233   C     0.49753   0.16665   0.87179   0.00000  Uiso   1.00
C234   C     0.50179   0.21597   0.86990   0.00000  Uiso   1.00
C235   C     0.51726   0.29395   0.84301   0.00000  Uiso   1.00
C236   C     0.49164   0.08281   0.00509   0.00000  Uiso   1.00
C237   C     0.52643   0.04836   0.01530   0.00000  Uiso   1.00
C238   C     0.54392   0.04359   0.07905   0.00000  Uiso   1.00
C239   C     0.58375   0.02179   0.17320   0.00000  Uiso   1.00
C240   C     0.41419   0.08841   0.95112   0.00000  Uiso   1.00
C241   C     0.38386   0.05866   0.91597   0.00000  Uiso   1.00
C242   C     0.33613   0.05860   0.93430   0.00000  Uiso   1.00
C243   C     0.25570   0.04549   0.94466   0.00000  Uiso   1.00
C244   C     0.43681   0.14681   0.03446   0.00000  Uiso   1.00
C245   C     0.45920   0.17573   0.97876   0.00000  Uiso   1.00
C246   C     0.46343   0.22504   0.97696   0.00000  Uiso   1.00
C247   C     0.48502   0.24469   0.92163   0.00000  Uiso   1.00
C248   C     0.47491   0.11147   0.05672   0.00000  Uiso   1.00
C249   C     0.49234   0.10675   0.12047   0.00000  Uiso   1.00
C250   C     0.52715   0.07231   0.13077   0.00000  Uiso   1.00
C251   C     0.39745   0.11707   0.00275   0.00000  Uiso   1.00
C252   C     0.34976   0.11706   0.02114   0.00000  Uiso   1.00
C253   C     0.31936   0.08732   0.98602   0.00000  Uiso   1.00
H254   H     0.48066   0.07172   0.89921   0.00000  Uiso   1.00
H255   H     0.51048   0.14445   0.83185   0.00000  Uiso   1.00
H256   H     0.53938   0.02618   0.97534   0.00000  Uiso   1.00
H257   H     0.39682   0.03648   0.87602   0.00000  Uiso   1.00
H258   H     0.53617   0.23773   0.77995   0.00000  Uiso   1.00
H259   H     0.59709   0.98834   0.08250   0.00000  Uiso   1.00
H260   H     0.29649   0.01006   0.87308   0.00000  Uiso   1.00
H261   H     0.42378   0.16913   0.07466   0.00000  Uiso   1.00
H262   H     0.45048   0.24721   0.01692   0.00000  Uiso   1.00
H263   H     0.47938   0.12894   0.16041   0.00000  Uiso   1.00
H264   H     0.33682   0.13924   0.06110   0.00000  Uiso   1.00
H265   H     0.48748   0.32113   0.93016   0.00000  Uiso   1.00
H266   H     0.54840   0.07174   0.23272   0.00000  Uiso   1.00
H267   H     0.24779   0.09347   0.02330   0.00000  Uiso   1.00
O268   O     0.53043   0.32903   0.81392   0.00000  Uiso   1.00
O269   O     0.61034   0.00184   0.21087   0.00000  Uiso   1.00
O270   O     0.21596   0.03034   0.93611   0.00000  Uiso   1.00
N271   N     0.52104   0.24664   0.82322   0.00000  Uiso   1.00
N272   N     0.57800   0.01348   0.10609   0.00000  Uiso   1.00
N273   N     0.29696   0.03378   0.91031   0.00000  Uiso   1.00
N274   N     0.49484   0.29152   0.90405   0.00000  Uiso   1.00
N275   N     0.55180   0.05836   0.18692   0.00000  Uiso   1.00
N276   N     0.27076   0.07866   0.99114   0.00000  Uiso   1.00
C277   C     0.53237   0.90596   0.93940   0.00000  Uiso   1.00
C278   C     0.52406   0.85294   0.92713   0.00000  Uiso   1.00
C279   C     0.50247   0.83335   0.87179   0.00000  Uiso   1.00
C280   C     0.49821   0.78403   0.86990   0.00000  Uiso   1.00
C281   C     0.48274   0.70605   0.84301   0.00000  Uiso   1.00
C282   C     0.50836   0.91719   0.00509   0.00000  Uiso   1.00
C283   C     0.47357   0.95164   0.01530   0.00000  Uiso   1.00
C284   C     0.45608   0.95641   0.07905   0.00000  Uiso   1.00
C285   C     0.41625   0.97821   0.17320   0.00000  Uiso   1.00
C286   C     0.58581   0.91159   0.95112   0.00000  Uiso   1.00
C287   C     0.61614   0.94134   0.91597   0.00000  Uiso   1.00
C288   C     0.66387   0.94140   0.93430   0.00000  Uiso   1.00
C289   C     0.74430   0.95451   0.94466   0.00000  Uiso   1.00
C290   C     0.56319   0.85319   0.03446   0.00000  Uiso   1.00
C291   C     0.54080   0.82427   0.97876   0.00000  Uiso   1.00
C292   C     0.53657   0.77496   0.97696   0.00000  Uiso   1.00
C293   C     0.51498   0.75531   0.92163   0.00000  Uiso   1.00
C294   C     0.52509   0.88853   0.05672   0.00000  Uiso   1.00
C295   C     0.50766   0.89325   0.12047   0.00000  Uiso   1.00
C296   C     0.47285   0.92769   0.13077   0.00000  Uiso   1.00
C297   C     0.60255   0.88293   0.00275   0.00000  Uiso   1.00
C298   C     0.65024   0.88294   0.02114   0.00000  Uiso   1.00
C299   C     0.68064   0.91268   0.98602   0.00000  Uiso   1.00
H300   H     0.51934   0.92828   0.89921   0.00000  Uiso   1.00
H301   H     0.48952   0.85555   0.83185   0.00000  Uiso   1.00
H302   H     0.46062   0.97382   0.97534   0.00000  Uiso   1.00
H303   H     0.60318   0.96352   0.87602   0.00000  Uiso   1.00
H304   H     0.46383   0.76227   0.77995   0.00000  Uiso   1.00
H305   H     0.40291   0.01166   0.08250   0.00000  Uiso   1.00
H306   H     0.70351   0.98994   0.87308   0.00000  Uiso   1.00
H307   H     0.57622   0.83087   0.07466   0.00000  Uiso   1.00
H308   H     0.54952   0.75279   0.01692   0.00000  Uiso   1.00
H309   H     0.52062   0.87106   0.16041   0.00000  Uiso   1.00
H310   H     0.66318   0.86076   0.06110   0.00000  Uiso   1.00
H311   H     0.51252   0.67887   0.93016   0.00000  Uiso   1.00
H312   H     0.45160   0.92826   0.23272   0.00000  Uiso   1.00
H313   H     0.75221   0.90653   0.02330   0.00000  Uiso   1.00
O314   O     0.46957   0.67097   0.81392   0.00000  Uiso   1.00
O315   O     0.38966   0.99816   0.21087   0.00000  Uiso   1.00
O316   O     0.78404   0.96966   0.93611   0.00000  Uiso   1.00
N317   N     0.47896   0.75336   0.82322   0.00000  Uiso   1.00
N318   N     0.42200   0.98652   0.10609   0.00000  Uiso   1.00
N319   N     0.70304   0.96622   0.91031   0.00000  Uiso   1.00
N320   N     0.50516   0.70848   0.90405   0.00000  Uiso   1.00
N321   N     0.44820   0.94164   0.18692   0.00000  Uiso   1.00
N322   N     0.72924   0.92134   0.99114   0.00000  Uiso   1.00
C323   C     0.03237   0.40596   0.43940   0.00000  Uiso   1.00
C324   C     0.02406   0.35294   0.42713   0.00000  Uiso   1.00
C325   C     0.00247   0.33335   0.37179   0.00000  Uiso   1.00
C326   C     0.99821   0.28403   0.36990   0.00000  Uiso   1.00
C327   C     0.98274   0.20605   0.34301   0.00000  Uiso   1.00
C328   C     0.00836   0.41719   0.50509   0.00000  Uiso   1.00
C329   C     0.97357   0.45164   0.51530   0.00000  Uiso   1.00
C330   C     0.95608   0.45641   0.57905   0.00000  Uiso   1.00
C331   C     0.91625   0.47821   0.67320   0.00000  Uiso   1.00
C332   C     0.08581   0.41159   0.45112   0.00000  Uiso   1.00
C333   C     0.11614   0.44134   0.41597   0.00000  Uiso   1.00
C334   C     0.16387   0.44140   0.43430   0.00000  Uiso   1.00
C335   C     0.24430   0.45451   0.44466   0.00000  Uiso   1.00
C336   C     0.06319   0.35319   0.53446   0.00000  Uiso   1.00
C337   C     0.04080   0.32427   0.47876   0.00000  Uiso   1.00
C338   C     0.03657   0.27496   0.47696   0.00000  Uiso   1.00
C339   C     0.01498   0.25531   0.42163   0.00000  Uiso   1.00
C340   C     0.02509   0.38853   0.55672   0.00000  Uiso   1.00
C341   C     0.00766   0.39325   0.62047   0.00000  Uiso   1.00
C342   C     0.97285   0.42769   0.63077   0.00000  Uiso   1.00
C343   C     0.10255   0.38293   0.50275   0.00000  Uiso   1.00
C344   C     0.15024   0.38294   0.52114   0.00000  Uiso   1.00
C345   C     0.18064   0.41268   0.48602   0.00000  Uiso   1.00
H346   H     0.01934   0.42828   0.39921   0.00000  Uiso   1.00
H347   H     0.98952   0.35555   0.33185   0.00000  Uiso   1.00
H348   H     0.96062   0.47382   0.47534   0.00000  Uiso   1.00
H349   H     0.10318   0.46352   0.37602   0.00000  Uiso   1.00
H350   H     0.96383   0.26227   0.27995   0.00000  Uiso   1.00
H351   H     0.90291   0.51166   0.58250   0.00000  Uiso   1.00
H352   H     0.20351   0.48994   0.37308   0.00000  Uiso   1.00
H353   H     0.07622   0.33087   0.57466   0.00000  Uiso   1.00
H354   H     0.04952   0.25279   0.51692   0.00000  Uiso   1.00
H355   H     0.02062   0.37106   0.66041   0.00000  Uiso   1.00
H356   H     0.16318   0.36076   0.56110   0.00000  Uiso   1.00
H357   H     0.01252   0.17887   0.43016   0.00000  Uiso   1.00
H358   H     0.95160   0.42826   0.73272   0.00000  Uiso   1.00
H359   H     0.25221   0.40653   0.52330   0.00000  Uiso   1.00
O360   O     0.96957   0.17097   0.31392   0.00000  Uiso   1.00
O361   O     0.88966   0.49816   0.71087   0.00000  Uiso   1.00
O362   O     0.28404   0.46966   0.43611   0.00000  Uiso   1.00
N363   N     0.97896   0.25336   0.32322   0.00000  Uiso   1.00
N364   N     0.92200   0.48652   0.60609   0.00000  Uiso   1.00
N365   N     0.20304   0.46622   0.41031   0.00000  Uiso   1.00
N366   N     0.00516   0.20848   0.40405   0.00000  Uiso   1.00
N367   N     0.94820   0.44164   0.68692   0.00000  Uiso   1.00
N368   N     0.22924   0.42134   0.49114   0.00000  Uiso   1.00
C369   C     0.90596   0.46763   0.06060   0.00000  Uiso   1.00
C370   C     0.85294   0.47594   0.07287   0.00000  Uiso   1.00
C371   C     0.83335   0.49753   0.12821   0.00000  Uiso   1.00
C372   C     0.78403   0.50179   0.13010   0.00000  Uiso   1.00
C373   C     0.70605   0.51726   0.15699   0.00000  Uiso   1.00
C374   C     0.91719   0.49164   0.99491   0.00000  Uiso   1.00
C375   C     0.95164   0.52643   0.98470   0.00000  Uiso   1.00
C376   C     0.95641   0.54392   0.92095   0.00000  Uiso   1.00
C377   C     0.97821   0.58375   0.82680   0.00000  Uiso   1.00
C378   C     0.91159   0.41419   0.04888   0.00000  Uiso   1.00
C379   C     0.94134   0.38386   0.08403   0.00000  Uiso   1.00
C380   C     0.94140   0.33613   0.06570   0.00000  Uiso   1.00
C381   C     0.95451   0.25570   0.05534   0.00000  Uiso   1.00
C382   C     0.85319   0.43681   0.96554   0.00000  Uiso   1.00
C383   C     0.82427   0.45920   0.02124   0.00000  Uiso   1.00
C384   C     0.77496   0.46343   0.02304   0.00000  Uiso   1.00
C385   C     0.75531   0.48502   0.07837   0.00000  Uiso   1.00
C386   C     0.88853   0.47491   0.94328   0.00000  Uiso   1.00
C387   C     0.89325   0.49234   0.87953   0.00000  Uiso   1.00
C388   C     0.92769   0.52715   0.86923   0.00000  Uiso   1.00
C389   C     0.88293   0.39745   0.99725   0.00000  Uiso   1.00
C390   C     0.88294   0.34976   0.97886   0.00000  Uiso   1.00
C391   C     0.91268   0.31936   0.01398   0.00000  Uiso   1.00
H392   H     0.92828   0.48066   0.10079   0.00000  Uiso   1.00
H393   H     0.85555   0.51048   0.16815   0.00000  Uiso   1.00
H394   H     0.97382   0.53938   0.02466   0.00000  Uiso   1.00
H395   H     0.96352   0.39682   0.12398   0.00000  Uiso   1.00
H396   H     0.76227   0.53617   0.22005   0.00000  Uiso   1.00
H397   H     0.01166   0.59709   0.91750   0.00000  Uiso   1.00
H398   H     0.98994   0.29649   0.12692   0.00000  Uiso   1.00
H399   H     0.83087   0.42378   0.92534   0.00000  Uiso   1.00
H400   H     0.75279   0.45048   0.98308   0.00000  Uiso   1.00
H401   H     0.87106   0.47938   0.83959   0.00000  Uiso   1.00
H402   H     0.86076   0.33682   0.93890   0.00000  Uiso   1.00
H403   H     0.67887   0.48748   0.06984   0.00000  Uiso   1.00
H404   H     0.92826   0.54840   0.76728   0.00000  Uiso   1.00
H405   H     0.90653   0.24779   0.97670   0.00000  Uiso   1.00
O406   O     0.67097   0.53043   0.18608   0.00000  Uiso   1.00
O407   O     0.99816   0.61034   0.78913   0.00000  Uiso   1.00
O408   O     0.96966   0.21596   0.06389   0.00000  Uiso   1.00
N409   N     0.75336   0.52104   0.17678   0.00000  Uiso   1.00
N410   N     0.98652   0.57800   0.89391   0.00000  Uiso   1.00
N411   N     0.96622   0.29696   0.08969   0.00000  Uiso   1.00
N412   N     0.70848   0.49484   0.09595   0.00000  Uiso   1.00
N413   N     0.94164   0.55180   0.81308   0.00000  Uiso   1.00
N414   N     0.92134   0.27076   0.00886   0.00000  Uiso   1.00
C415   C     0.40596   0.96763   0.56060   0.00000  Uiso   1.00
C416   C     0.35294   0.97594   0.57287   0.00000  Uiso   1.00
C417   C     0.33335   0.99753   0.62821   0.00000  Uiso   1.00
C418   C     0.28403   0.00179   0.63010   0.00000  Uiso   1.00
C419   C     0.20605   0.01726   0.65699   0.00000  Uiso   1.00
C420   C     0.41719   0.99164   0.49491   0.00000  Uiso   1.00
C421   C     0.45164   0.02643   0.48470   0.00000  Uiso   1.00
C422   C     0.45641   0.04392   0.42095   0.00000  Uiso   1.00
C423   C     0.47821   0.08375   0.32680   0.00000  Uiso   1.00
C424   C     0.41159   0.91419   0.54888   0.00000  Uiso   1.00
C425   C     0.44134   0.88386   0.58403   0.00000  Uiso   1.00
C426   C     0.44140   0.83613   0.56570   0.00000  Uiso   1.00
C427   C     0.45451   0.75570   0.55534   0.00000  Uiso   1.00
C428   C     0.35319   0.93681   0.46554   0.00000  Uiso   1.00
C429   C     0.32427   0.95920   0.52124   0.00000  Uiso   1.00
C430   C     0.27496   0.96343   0.52304   0.00000  Uiso   1.00
C431   C     0.25531   0.98502   0.57837   0.00000  Uiso   1.00
C432   C     0.38853   0.97491   0.44328   0.00000  Uiso   1.00
C433   C     0.39325   0.99234   0.37953   0.00000  Uiso   1.00
C434   C     0.42769   0.02715   0.36923   0.00000  Uiso   1.00
C435   C     0.38293   0.89745   0.49725   0.00000  Uiso   1.00
C436   C     0.38294   0.84976   0.47886   0.00000  Uiso   1.00
C437   C     0.41268   0.81936   0.51398   0.00000  Uiso   1.00
H438   H     0.42828   0.98066   0.60079   0.00000  Uiso   1.00
H439   H     0.35555   0.01048   0.66815   0.00000  Uiso   1.00
H440   H     0.47382   0.03938   0.52466   0.00000  Uiso   1.00
H441   H     0.46352   0.89682   0.62398   0.00000  Uiso   1.00
H442   H     0.26227   0.03617   0.72005   0.00000  Uiso   1.00
H443   H     0.51166   0.09709   0.41750   0.00000  Uiso   1.00
H444   H     0.48994   0.79649   0.62692   0.00000  Uiso   1.00
H445   H     0.33087   0.92378   0.42534   0.00000  Uiso   1.00
H446   H     0.25279   0.95048   0.48308   0.00000  Uiso   1.00
H447   H     0.37106   0.97938   0.33959   0.00000  Uiso   1.00
H448   H     0.36076   0.83682   0.43890   0.00000  Uiso   1.00
H449   H     0.17887   0.98748   0.56984   0.00000  Uiso   1.00
H450   H     0.42826   0.04840   0.26728   0.00000  Uiso   1.00
H451   H     0.40653   0.74779   0.47670   0.00000  Uiso   1.00
O452   O     0.17097   0.03043   0.68608   0.00000  Uiso   1.00
O453   O     0.49816   0.11034   0.28913   0.00000  Uiso   1.00
O454   O     0.46966   0.71596   0.56389   0.00000  Uiso   1.00
N455   N     0.25336   0.02104   0.67678   0.00000  Uiso   1.00
N456   N     0.48652   0.07800   0.39391   0.00000  Uiso   1.00
N457   N     0.46622   0.79696   0.58969   0.00000  Uiso   1.00
N458   N     0.20848   0.99484   0.59595   0.00000  Uiso   1.00
N459   N     0.44164   0.05180   0.31308   0.00000  Uiso   1.00
N460   N     0.42134   0.77076   0.50886   0.00000  Uiso   1.00
C461   C     0.59404   0.03237   0.56060   0.00000  Uiso   1.00
C462   C     0.64706   0.02406   0.57287   0.00000  Uiso   1.00
C463   C     0.66665   0.00247   0.62821   0.00000  Uiso   1.00
C464   C     0.71597   0.99821   0.63010   0.00000  Uiso   1.00
C465   C     0.79395   0.98274   0.65699   0.00000  Uiso   1.00
C466   C     0.58281   0.00836   0.49491   0.00000  Uiso   1.00
C467   C     0.54836   0.97357   0.48470   0.00000  Uiso   1.00
C468   C     0.54359   0.95608   0.42095   0.00000  Uiso   1.00
C469   C     0.52179   0.91625   0.32680   0.00000  Uiso   1.00
C470   C     0.58841   0.08581   0.54888   0.00000  Uiso   1.00
C471   C     0.55866   0.11614   0.58403   0.00000  Uiso   1.00
C472   C     0.55860   0.16387   0.56570   0.00000  Uiso   1.00
C473   C     0.54549   0.24430   0.55534   0.00000  Uiso   1.00
C474   C     0.64681   0.06319   0.46554   0.00000  Uiso   1.00
C475   C     0.67573   0.04080   0.52124   0.00000  Uiso   1.00
C476   C     0.72504   0.03657   0.52304   0.00000  Uiso   1.00
C477   C     0.74469   0.01498   0.57837   0.00000  Uiso   1.00
C478   C     0.61147   0.02509   0.44328   0.00000  Uiso   1.00
C479   C     0.60675   0.00766   0.37953   0.00000  Uiso   1.00
C480   C     0.57231   0.97285   0.36923   0.00000  Uiso   1.00
C481   C     0.61707   0.10255   0.49725   0.00000  Uiso   1.00
C482   C     0.61706   0.15024   0.47886   0.00000  Uiso   1.00
C483   C     0.58732   0.18064   0.51398   0.00000  Uiso   1.00
H484   H     0.57172   0.01934   0.60079   0.00000  Uiso   1.00
H485   H     0.64445   0.98952   0.66815   0.00000  Uiso   1.00
H486   H     0.52618   0.96062   0.52466   0.00000  Uiso   1.00
H487   H     0.53648   0.10318   0.62398   0.00000  Uiso   1.00
H488   H     0.73773   0.96383   0.72005   0.00000  Uiso   1.00
H489   H     0.48834   0.90291   0.41750   0.00000  Uiso   1.00
H490   H     0.51006   0.20351   0.62692   0.00000  Uiso   1.00
H491   H     0.66913   0.07622   0.42534   0.00000  Uiso   1.00
H492   H     0.74721   0.04952   0.48308   0.00000  Uiso   1.00
H493   H     0.62894   0.02062   0.33959   0.00000  Uiso   1.00
H494   H     0.63924   0.16318   0.43890   0.00000  Uiso   1.00
H495   H     0.82113   0.01252   0.56984   0.00000  Uiso   1.00
H496   H     0.57174   0.95160   0.26728   0.00000  Uiso   1.00
H497   H     0.59347   0.25221   0.47670   0.00000  Uiso   1.00
O498   O     0.82903   0.96957   0.68608   0.00000  Uiso   1.00
O499   O     0.50184   0.88966   0.28913   0.00000  Uiso   1.00
O500   O     0.53034   0.28404   0.56389   0.00000  Uiso   1.00
N501   N     0.74664   0.97896   0.67678   0.00000  Uiso   1.00
N502   N     0.51348   0.92200   0.39391   0.00000  Uiso   1.00
N503   N     0.53378   0.20304   0.58969   0.00000  Uiso   1.00
N504   N     0.79152   0.00516   0.59595   0.00000  Uiso   1.00
N505   N     0.55836   0.94820   0.31308   0.00000  Uiso   1.00
N506   N     0.57866   0.22924   0.50886   0.00000  Uiso   1.00
C507   C     0.09404   0.53237   0.06060   0.00000  Uiso   1.00
C508   C     0.14706   0.52406   0.07287   0.00000  Uiso   1.00
C509   C     0.16665   0.50247   0.12821   0.00000  Uiso   1.00
C510   C     0.21597   0.49821   0.13010   0.00000  Uiso   1.00
C511   C     0.29395   0.48274   0.15699   0.00000  Uiso   1.00
C512   C     0.08281   0.50836   0.99491   0.00000  Uiso   1.00
C513   C     0.04836   0.47357   0.98470   0.00000  Uiso   1.00
C514   C     0.04359   0.45608   0.92095   0.00000  Uiso   1.00
C515   C     0.02179   0.41625   0.82680   0.00000  Uiso   1.00
C516   C     0.08841   0.58581   0.04888   0.00000  Uiso   1.00
C517   C     0.05866   0.61614   0.08403   0.00000  Uiso   1.00
C518   C     0.05860   0.66387   0.06570   0.00000  Uiso   1.00
C519   C     0.04549   0.74430   0.05534   0.00000  Uiso   1.00
C520   C     0.14681   0.56319   0.96554   0.00000  Uiso   1.00
C521   C     0.17573   0.54080   0.02124   0.00000  Uiso   1.00
C522   C     0.22504   0.53657   0.02304   0.00000  Uiso   1.00
C523   C     0.24469   0.51498   0.07837   0.00000  Uiso   1.00
C524   C     0.11147   0.52509   0.94328   0.00000  Uiso   1.00
C525   C     0.10675   0.50766   0.87953   0.00000  Uiso   1.00
C526   C     0.07231   0.47285   0.86923   0.00000  Uiso   1.00
C527   C     0.11707   0.60255   0.99725   0.00000  Uiso   1.00
C528   C     0.11706   0.65024   0.97886   0.00000  Uiso   1.00
C529   C     0.08732   0.68064   0.01398   0.00000  Uiso   1.00
H530   H     0.07172   0.51934   0.10079   0.00000  Uiso   1.00
H531   H     0.14445   0.48952   0.16815   0.00000  Uiso   1.00
H532   H     0.02618   0.46062   0.02466   0.00000  Uiso   1.00
H533   H     0.03648   0.60318   0.12398   0.00000  Uiso   1.00
H534   H     0.23773   0.46383   0.22005   0.00000  Uiso   1.00
H535   H     0.98834   0.40291   0.91750   0.00000  Uiso   1.00
H536   H     0.01006   0.70351   0.12692   0.00000  Uiso   1.00
H537   H     0.16913   0.57622   0.92534   0.00000  Uiso   1.00
H538   H     0.24721   0.54952   0.98308   0.00000  Uiso   1.00
H539   H     0.12894   0.52062   0.83959   0.00000  Uiso   1.00
H540   H     0.13924   0.66318   0.93890   0.00000  Uiso   1.00
H541   H     0.32113   0.51252   0.06984   0.00000  Uiso   1.00
H542   H     0.07174   0.45160   0.76728   0.00000  Uiso   1.00
H543   H     0.09347   0.75221   0.97670   0.00000  Uiso   1.00
O544   O     0.32903   0.46957   0.18608   0.00000  Uiso   1.00
O545   O     0.00184   0.38966   0.78913   0.00000  Uiso   1.00
O546   O     0.03034   0.78404   0.06389   0.00000  Uiso   1.00
N547   N     0.24664   0.47896   0.17678   0.00000  Uiso   1.00
N548   N     0.01348   0.42200   0.89391   0.00000  Uiso   1.00
N549   N     0.03378   0.70304   0.08969   0.00000  Uiso   1.00
N550   N     0.29152   0.50516   0.09595   0.00000  Uiso   1.00
N551   N     0.05836   0.44820   0.81308   0.00000  Uiso   1.00
N552   N     0.07866   0.72924   0.00886   0.00000  Uiso   1.00
C553   C     0.03237   0.90596   0.81060   0.00000  Uiso   1.00
C554   C     0.02406   0.85294   0.82287   0.00000  Uiso   1.00
C555   C     0.00247   0.83335   0.87821   0.00000  Uiso   1.00
C556   C     0.99821   0.78403   0.88010   0.00000  Uiso   1.00
C557   C     0.98274   0.70605   0.90699   0.00000  Uiso   1.00
C558   C     0.00836   0.91719   0.74491   0.00000  Uiso   1.00
C559   C     0.97357   0.95164   0.73470   0.00000  Uiso   1.00
C560   C     0.95608   0.95641   0.67095   0.00000  Uiso   1.00
C561   C     0.91625   0.97821   0.57680   0.00000  Uiso   1.00
C562   C     0.08581   0.91159   0.79888   0.00000  Uiso   1.00
C563   C     0.11614   0.94134   0.83403   0.00000  Uiso   1.00
C564   C     0.16387   0.94140   0.81570   0.00000  Uiso   1.00
C565   C     0.24430   0.95451   0.80534   0.00000  Uiso   1.00
C566   C     0.06319   0.85319   0.71554   0.00000  Uiso   1.00
C567   C     0.04080   0.82427   0.77124   0.00000  Uiso   1.00
C568   C     0.03657   0.77496   0.77304   0.00000  Uiso   1.00
C569   C     0.01498   0.75531   0.82837   0.00000  Uiso   1.00
C570   C     0.02509   0.88853   0.69328   0.00000  Uiso   1.00
C571   C     0.00766   0.89325   0.62953   0.00000  Uiso   1.00
C572   C     0.97285   0.92769   0.61923   0.00000  Uiso   1.00
C573   C     0.10255   0.88293   0.74725   0.00000  Uiso   1.00
C574   C     0.15024   0.88294   0.72886   0.00000  Uiso   1.00
C575   C     0.18064   0.91268   0.76398   0.00000  Uiso   1.00
H576   H     0.01934   0.92828   0.85079   0.00000  Uiso   1.00
H577   H     0.98952   0.85555   0.91815   0.00000  Uiso   1.00
H578   H     0.96062   0.97382   0.77466   0.00000  Uiso   1.00
H579   H     0.10318   0.96352   0.87398   0.00000  Uiso   1.00
H580   H     0.96383   0.76227   0.97005   0.00000  Uiso   1.00
H581   H     0.90291   0.01166   0.66750   0.00000  Uiso   1.00
H582   H     0.20351   0.98994   0.87692   0.00000  Uiso   1.00
H583   H     0.07622   0.83087   0.67534   0.00000  Uiso   1.00
H584   H     0.04952   0.75279   0.73308   0.00000  Uiso   1.00
H585   H     0.02062   0.87106   0.58959   0.00000  Uiso   1.00
H586   H     0.16318   0.86076   0.68890   0.00000  Uiso   1.00
H587   H     0.01252   0.67887   0.81984   0.00000  Uiso   1.00
H588   H     0.95160   0.92826   0.51728   0.00000  Uiso   1.00
H589   H     0.25221   0.90653   0.72670   0.00000  Uiso   1.00
O590   O     0.96957   0.67097   0.93608   0.00000  Uiso   1.00
O591   O     0.88966   0.99816   0.53913   0.00000  Uiso   1.00
O592   O     0.28404   0.96966   0.81389   0.00000  Uiso   1.00
N593   N     0.97896   0.75336   0.92678   0.00000  Uiso   1.00
N594   N     0.92200   0.98652   0.64391   0.00000  Uiso   1.00
N595   N     0.20304   0.96622   0.83969   0.00000  Uiso   1.00
N596   N     0.00516   0.70848   0.84595   0.00000  Uiso   1.00
N597   N     0.94820   0.94164   0.56308   0.00000  Uiso   1.00
N598   N     0.22924   0.92134   0.75886   0.00000  Uiso   1.00
C599   C     0.53237   0.40596   0.31060   0.00000  Uiso   1.00
C600   C     0.52406   0.35294   0.32287   0.00000  Uiso   1.00
C601   C     0.50247   0.33335   0.37821   0.00000  Uiso   1.00
C602   C     0.49821   0.28403   0.38010   0.00000  Uiso   1.00
C603   C     0.48274   0.20605   0.40699   0.00000  Uiso   1.00
C604   C     0.50836   0.41719   0.24491   0.00000  Uiso   1.00
C605   C     0.47357   0.45164   0.23470   0.00000  Uiso   1.00
C606   C     0.45608   0.45641   0.17095   0.00000  Uiso   1.00
C607   C     0.41625   0.47821   0.07680   0.00000  Uiso   1.00
C608   C     0.58581   0.41159   0.29888   0.00000  Uiso   1.00
C609   C     0.61614   0.44134   0.33403   0.00000  Uiso   1.00
C610   C     0.66387   0.44140   0.31570   0.00000  Uiso   1.00
C611   C     0.74430   0.45451   0.30534   0.00000  Uiso   1.00
C612   C     0.56319   0.35319   0.21554   0.00000  Uiso   1.00
C613   C     0.54080   0.32427   0.27124   0.00000  Uiso   1.00
C614   C     0.53657   0.27496   0.27304   0.00000  Uiso   1.00
C615   C     0.51498   0.25531   0.32837   0.00000  Uiso   1.00
C616   C     0.52509   0.38853   0.19328   0.00000  Uiso   1.00
C617   C     0.50766   0.39325   0.12953   0.00000  Uiso   1.00
C618   C     0.47285   0.42769   0.11923   0.00000  Uiso   1.00
C619   C     0.60255   0.38293   0.24725   0.00000  Uiso   1.00
C620   C     0.65024   0.38294   0.22886   0.00000  Uiso   1.00
C621   C     0.68064   0.41268   0.26398   0.00000  Uiso   1.00
H622   H     0.51934   0.42828   0.35079   0.00000  Uiso   1.00
H623   H     0.48952   0.35555   0.41815   0.00000  Uiso   1.00
H624   H     0.46062   0.47382   0.27466   0.00000  Uiso   1.00
H625   H     0.60318   0.46352   0.37398   0.00000  Uiso   1.00
H626   H     0.46383   0.26227   0.47005   0.00000  Uiso   1.00
H627   H     0.40291   0.51166   0.16750   0.00000  Uiso   1.00
H628   H     0.70351   0.48994   0.37692   0.00000  Uiso   1.00
H629   H     0.57622   0.33087   0.17534   0.00000  Uiso   1.00
H630   H     0.54952   0.25279   0.23308   0.00000  Uiso   1.00
H631   H     0.52062   0.37106   0.08959   0.00000  Uiso   1.00
H632   H     0.66318   0.36076   0.18890   0.00000  Uiso   1.00
H633   H     0.51252   0.17887   0.31984   0.00000  Uiso   1.00
H634   H     0.45160   0.42826   0.01728   0.00000  Uiso   1.00
H635   H     0.75221   0.40653   0.22670   0.00000  Uiso   1.00
O636   O     0.46957   0.17097   0.43608   0.00000  Uiso   1.00
O637   O     0.38966   0.49816   0.03913   0.00000  Uiso   1.00
O638   O     0.78404   0.46966   0.31389   0.00000  Uiso   1.00
N639   N     0.47896   0.25336   0.42678   0.00000  Uiso   1.00
N640   N     0.42200   0.48652   0.14391   0.00000  Uiso   1.00
N641   N     0.70304   0.46622   0.33969   0.00000  Uiso   1.00
N642   N     0.50516   0.20848   0.34595   0.00000  Uiso   1.00
N643   N     0.44820   0.44164   0.06308   0.00000  Uiso   1.00
N644   N     0.72924   0.42134   0.25886   0.00000  Uiso   1.00
C645   C     0.46763   0.59404   0.31060   0.00000  Uiso   1.00
C646   C     0.47594   0.64706   0.32287   0.00000  Uiso   1.00
C647   C     0.49753   0.66665   0.37821   0.00000  Uiso   1.00
C648   C     0.50179   0.71597   0.38010   0.00000  Uiso   1.00
C649   C     0.51726   0.79395   0.40699   0.00000  Uiso   1.00
C650   C     0.49164   0.58281   0.24491   0.00000  Uiso   1.00
C651   C     0.52643   0.54836   0.23470   0.00000  Uiso   1.00
C652   C     0.54392   0.54359   0.17095   0.00000  Uiso   1.00
C653   C     0.58375   0.52179   0.07680   0.00000  Uiso   1.00
C654   C     0.41419   0.58841   0.29888   0.00000  Uiso   1.00
C655   C     0.38386   0.55866   0.33403   0.00000  Uiso   1.00
C656   C     0.33613   0.55860   0.31570   0.00000  Uiso   1.00
C657   C     0.25570   0.54549   0.30534   0.00000  Uiso   1.00
C658   C     0.43681   0.64681   0.21554   0.00000  Uiso   1.00
C659   C     0.45920   0.67573   0.27124   0.00000  Uiso   1.00
C660   C     0.46343   0.72504   0.27304   0.00000  Uiso   1.00
C661   C     0.48502   0.74469   0.32837   0.00000  Uiso   1.00
C662   C     0.47491   0.61147   0.19328   0.00000  Uiso   1.00
C663   C     0.49234   0.60675   0.12953   0.00000  Uiso   1.00
C664   C     0.52715   0.57231   0.11923   0.00000  Uiso   1.00
C665   C     0.39745   0.61707   0.24725   0.00000  Uiso   1.00
C666   C     0.34976   0.61706   0.22886   0.00000  Uiso   1.00
C667   C     0.31936   0.58732   0.26398   0.00000  Uiso   1.00
H668   H     0.48066   0.57172   0.35079   0.00000  Uiso   1.00
H669   H     0.51048   0.64445   0.41815   0.00000  Uiso   1.00
H670   H     0.53938   0.52618   0.27466   0.00000  Uiso   1.00
H671   H     0.39682   0.53648   0.37398   0.00000  Uiso   1.00
H672   H     0.53617   0.73773   0.47005   0.00000  Uiso   1.00
H673   H     0.59709   0.48834   0.16750   0.00000  Uiso   1.00
H674   H     0.29649   0.51006   0.37692   0.00000  Uiso   1.00
H675   H     0.42378   0.66913   0.17534   0.00000  Uiso   1.00
H676   H     0.45048   0.74721   0.23308   0.00000  Uiso   1.00
H677   H     0.47938   0.62894   0.08959   0.00000  Uiso   1.00
H678   H     0.33682   0.63924   0.18890   0.00000  Uiso   1.00
H679   H     0.48748   0.82113   0.31984   0.00000  Uiso   1.00
H680   H     0.54840   0.57174   0.01728   0.00000  Uiso   1.00
H681   H     0.24779   0.59347   0.22670   0.00000  Uiso   1.00
O682   O     0.53043   0.82903   0.43608   0.00000  Uiso   1.00
O683   O     0.61034   0.50184   0.03913   0.00000  Uiso   1.00
O684   O     0.21596   0.53034   0.31389   0.00000  Uiso   1.00
N685   N     0.52104   0.74664   0.42678   0.00000  Uiso   1.00
N686   N     0.57800   0.51348   0.14391   0.00000  Uiso   1.00
N687   N     0.29696   0.53378   0.33969   0.00000  Uiso   1.00
N688   N     0.49484   0.79152   0.34595   0.00000  Uiso   1.00
N689   N     0.55180   0.55836   0.06308   0.00000  Uiso   1.00
N690   N     0.27076   0.57866   0.25886   0.00000  Uiso   1.00
C691   C     0.96763   0.09404   0.81060   0.00000  Uiso   1.00
C692   C     0.97594   0.14706   0.82287   0.00000  Uiso   1.00
C693   C     0.99753   0.16665   0.87821   0.00000  Uiso   1.00
C694   C     0.00179   0.21597   0.88010   0.00000  Uiso   1.00
C695   C     0.01726   0.29395   0.90699   0.00000  Uiso   1.00
C696   C     0.99164   0.08281   0.74491   0.00000  Uiso   1.00
C697   C     0.02643   0.04836   0.73470   0.00000  Uiso   1.00
C698   C     0.04392   0.04359   0.67095   0.00000  Uiso   1.00
C699   C     0.08375   0.02179   0.57680   0.00000  Uiso   1.00
C700   C     0.91419   0.08841   0.79888   0.00000  Uiso   1.00
C701   C     0.88386   0.05866   0.83403   0.00000  Uiso   1.00
C702   C     0.83613   0.05860   0.81570   0.00000  Uiso   1.00
C703   C     0.75570   0.04549   0.80534   0.00000  Uiso   1.00
C704   C     0.93681   0.14681   0.71554   0.00000  Uiso   1.00
C705   C     0.95920   0.17573   0.77124   0.00000  Uiso   1.00
C706   C     0.96343   0.22504   0.77304   0.00000  Uiso   1.00
C707   C     0.98502   0.24469   0.82837   0.00000  Uiso   1.00
C708   C     0.97491   0.11147   0.69328   0.00000  Uiso   1.00
C709   C     0.99234   0.10675   0.62953   0.00000  Uiso   1.00
C710   C     0.02715   0.07231   0.61923   0.00000  Uiso   1.00
C711   C     0.89745   0.11707   0.74725   0.00000  Uiso   1.00
C712   C     0.84976   0.11706   0.72886   0.00000  Uiso   1.00
C713   C     0.81936   0.08732   0.76398   0.00000  Uiso   1.00
H714   H     0.98066   0.07172   0.85079   0.00000  Uiso   1.00
H715   H     0.01048   0.14445   0.91815   0.00000  Uiso   1.00
H716   H     0.03938   0.02618   0.77466   0.00000  Uiso   1.00
H717   H     0.89682   0.03648   0.87398   0.00000  Uiso   1.00
H718   H     0.03617   0.23773   0.97005   0.00000  Uiso   1.00
H719   H     0.09709   0.98834   0.66750   0.00000  Uiso   1.00
H720   H     0.79649   0.01006   0.87692   0.00000  Uiso   1.00
H721   H     0.92378   0.16913   0.67534   0.00000  Uiso   1.00
H722   H     0.95048   0.24721   0.73308   0.00000  Uiso   1.00
H723   H     0.97938   0.12894   0.58959   0.00000  Uiso   1.00
H724   H     0.83682   0.13924   0.68890   0.00000  Uiso   1.00
H725   H     0.98748   0.32113   0.81984   0.00000  Uiso   1.00
H726   H     0.04840   0.07174   0.51728   0.00000  Uiso   1.00
H727   H     0.74779   0.09347   0.72670   0.00000  Uiso   1.00
O728   O     0.03043   0.32903   0.93608   0.00000  Uiso   1.00
O729   O     0.11034   0.00184   0.53913   0.00000  Uiso   1.00
O730   O     0.71596   0.03034   0.81389   0.00000  Uiso   1.00
N731   N     0.02104   0.24664   0.92678   0.00000  Uiso   1.00
N732   N     0.07800   0.01348   0.64391   0.00000  Uiso   1.00
N733   N     0.79696   0.03378   0.83969   0.00000  Uiso   1.00
N734   N     0.99484   0.29152   0.84595   0.00000  Uiso   1.00
N735   N     0.05180   0.05836   0.56308   0.00000  Uiso   1.00
N736   N     0.77076   0.07866   0.75886   0.00000  Uiso   1.00
