data_job_03756
_audit_creation_date              2018-12-19
_audit_creation_method            'Materials Studio'
_symmetry_space_group_name_H-M    'P1'
_symmetry_Int_Tables_number       1
_symmetry_cell_setting            triclinic
loop_
_symmetry_equiv_pos_as_xyz
  x,y,z
_cell_length_a                    42.9688
_cell_length_b                    33.3317
_cell_length_c                    7.2518
_cell_angle_alpha                 90.0000
_cell_angle_beta                  90.0000
_cell_angle_gamma                 90.0000
loop_
_atom_site_label
_atom_site_type_symbol
_atom_site_fract_x
_atom_site_fract_y
_atom_site_fract_z
_atom_site_U_iso_or_equiv
_atom_site_adp_type
_atom_site_occupancy
C1     C     0.83241   0.66848   0.69044   0.00000  Uiso   1.00
C2     C     0.81608   0.70910   0.69147   0.00000  Uiso   1.00
C3     C     0.80239   0.72753   0.54024   0.00000  Uiso   1.00
C4     C     0.78865   0.76468   0.56962   0.00000  Uiso   1.00
C5     C     0.76332   0.82501   0.54467   0.00000  Uiso   1.00
C6     C     0.86513   0.67601   0.76417   0.00000  Uiso   1.00
C7     C     0.89267   0.66661   0.67406   0.00000  Uiso   1.00
C8     C     0.92021   0.67590   0.76464   0.00000  Uiso   1.00
C9     C     0.97102   0.68484   0.85261   0.00000  Uiso   1.00
C10    C     0.81597   0.64309   0.83572   0.00000  Uiso   1.00
C11    C     0.80219   0.60600   0.80581   0.00000  Uiso   1.00
C12    C     0.78835   0.58756   0.95665   0.00000  Uiso   1.00
C13    C     0.76284   0.54538   0.15573   0.00000  Uiso   1.00
C14    C     0.83234   0.70169   0.01154   0.00000  Uiso   1.00
C15    C     0.81604   0.72714   0.86589   0.00000  Uiso   1.00
C16    C     0.80231   0.76427   0.89550   0.00000  Uiso   1.00
C17    C     0.78861   0.78275   0.74434   0.00000  Uiso   1.00
C18    C     0.86509   0.69405   0.93857   0.00000  Uiso   1.00
C19    C     0.89259   0.70336   0.02932   0.00000  Uiso   1.00
C20    C     0.92017   0.69397   0.93937   0.00000  Uiso   1.00
C21    C     0.81593   0.66113   0.01014   0.00000  Uiso   1.00
C22    C     0.80211   0.64274   0.16106   0.00000  Uiso   1.00
C23    C     0.78831   0.60563   0.13138   0.00000  Uiso   1.00
H24    H     0.83244   0.65443   0.55466   0.00000  Uiso   1.00
H25    H     0.80243   0.71356   0.40529   0.00000  Uiso   1.00
H26    H     0.89269   0.65265   0.53910   0.00000  Uiso   1.00
H27    H     0.80223   0.59205   0.67082   0.00000  Uiso   1.00
H28    H     0.76915   0.78707   0.31658   0.00000  Uiso   1.00
H29    H     0.95948   0.65862   0.59875   0.00000  Uiso   1.00
H30    H     0.76871   0.53083   0.87652   0.00000  Uiso   1.00
H31    H     0.83231   0.71574   0.14733   0.00000  Uiso   1.00
H32    H     0.80229   0.77822   0.03049   0.00000  Uiso   1.00
H33    H     0.89256   0.71731   0.16429   0.00000  Uiso   1.00
H34    H     0.80209   0.65671   0.29601   0.00000  Uiso   1.00
H35    H     0.76904   0.83955   0.82401   0.00000  Uiso   1.00
H36    H     0.95937   0.71111   0.10618   0.00000  Uiso   1.00
H37    H     0.76860   0.58332   0.38395   0.00000  Uiso   1.00
O38    O     0.74936   0.85332   0.48273   0.00000  Uiso   1.00
O39    O     0.99906   0.68480   0.85293   0.00000  Uiso   1.00
O40    O     0.74877   0.51714   0.21735   0.00000  Uiso   1.00
N41    N     0.77324   0.79084   0.45205   0.00000  Uiso   1.00
N42    N     0.95119   0.67076   0.71585   0.00000  Uiso   1.00
N43    N     0.77284   0.55128   0.97555   0.00000  Uiso   1.00
N44    N     0.77318   0.81908   0.72510   0.00000  Uiso   1.00
N45    N     0.95112   0.69900   0.98889   0.00000  Uiso   1.00
N46    N     0.77278   0.57952   0.24859   0.00000  Uiso   1.00
C47    C     0.83241   0.16848   0.19044   0.00000  Uiso   1.00
C48    C     0.81608   0.20910   0.19147   0.00000  Uiso   1.00
C49    C     0.80239   0.22753   0.04024   0.00000  Uiso   1.00
C50    C     0.78865   0.26468   0.06962   0.00000  Uiso   1.00
C51    C     0.76332   0.32501   0.04467   0.00000  Uiso   1.00
C52    C     0.86513   0.17601   0.26417   0.00000  Uiso   1.00
C53    C     0.89267   0.16661   0.17406   0.00000  Uiso   1.00
C54    C     0.92021   0.17590   0.26464   0.00000  Uiso   1.00
C55    C     0.97102   0.18484   0.35261   0.00000  Uiso   1.00
C56    C     0.81597   0.14309   0.33572   0.00000  Uiso   1.00
C57    C     0.80219   0.10600   0.30581   0.00000  Uiso   1.00
C58    C     0.78835   0.08756   0.45665   0.00000  Uiso   1.00
C59    C     0.76284   0.04538   0.65573   0.00000  Uiso   1.00
C60    C     0.83234   0.20169   0.51154   0.00000  Uiso   1.00
C61    C     0.81604   0.22714   0.36589   0.00000  Uiso   1.00
C62    C     0.80231   0.26427   0.39550   0.00000  Uiso   1.00
C63    C     0.78861   0.28275   0.24434   0.00000  Uiso   1.00
C64    C     0.86509   0.19405   0.43857   0.00000  Uiso   1.00
C65    C     0.89259   0.20336   0.52932   0.00000  Uiso   1.00
C66    C     0.92017   0.19397   0.43937   0.00000  Uiso   1.00
C67    C     0.81593   0.16113   0.51014   0.00000  Uiso   1.00
C68    C     0.80211   0.14274   0.66106   0.00000  Uiso   1.00
C69    C     0.78831   0.10563   0.63138   0.00000  Uiso   1.00
H70    H     0.83244   0.15443   0.05466   0.00000  Uiso   1.00
H71    H     0.80243   0.21356   0.90529   0.00000  Uiso   1.00
H72    H     0.89269   0.15265   0.03910   0.00000  Uiso   1.00
H73    H     0.80223   0.09205   0.17082   0.00000  Uiso   1.00
H74    H     0.76915   0.28707   0.81658   0.00000  Uiso   1.00
H75    H     0.95948   0.15862   0.09875   0.00000  Uiso   1.00
H76    H     0.76871   0.03083   0.37652   0.00000  Uiso   1.00
H77    H     0.83231   0.21574   0.64733   0.00000  Uiso   1.00
H78    H     0.80229   0.27822   0.53049   0.00000  Uiso   1.00
H79    H     0.89256   0.21731   0.66429   0.00000  Uiso   1.00
H80    H     0.80209   0.15671   0.79601   0.00000  Uiso   1.00
H81    H     0.76904   0.33955   0.32401   0.00000  Uiso   1.00
H82    H     0.95937   0.21111   0.60618   0.00000  Uiso   1.00
H83    H     0.76860   0.08332   0.88395   0.00000  Uiso   1.00
O84    O     0.74936   0.35332   0.98273   0.00000  Uiso   1.00
O85    O     0.99906   0.18480   0.35293   0.00000  Uiso   1.00
O86    O     0.74877   0.01714   0.71735   0.00000  Uiso   1.00
N87    N     0.77324   0.29084   0.95205   0.00000  Uiso   1.00
N88    N     0.95119   0.17076   0.21585   0.00000  Uiso   1.00
N89    N     0.77284   0.05128   0.47555   0.00000  Uiso   1.00
N90    N     0.77318   0.31908   0.22510   0.00000  Uiso   1.00
N91    N     0.95112   0.19900   0.48889   0.00000  Uiso   1.00
N92    N     0.77278   0.07952   0.74859   0.00000  Uiso   1.00
C93    C     0.33241   0.66848   0.19044   0.00000  Uiso   1.00
C94    C     0.31608   0.70910   0.19147   0.00000  Uiso   1.00
C95    C     0.30239   0.72753   0.04024   0.00000  Uiso   1.00
C96    C     0.28865   0.76468   0.06962   0.00000  Uiso   1.00
C97    C     0.26332   0.82501   0.04467   0.00000  Uiso   1.00
C98    C     0.36513   0.67601   0.26417   0.00000  Uiso   1.00
C99    C     0.39267   0.66661   0.17406   0.00000  Uiso   1.00
C100   C     0.42021   0.67590   0.26464   0.00000  Uiso   1.00
C101   C     0.47102   0.68484   0.35261   0.00000  Uiso   1.00
C102   C     0.31597   0.64309   0.33572   0.00000  Uiso   1.00
C103   C     0.30219   0.60600   0.30581   0.00000  Uiso   1.00
C104   C     0.28835   0.58756   0.45665   0.00000  Uiso   1.00
C105   C     0.26284   0.54538   0.65573   0.00000  Uiso   1.00
C106   C     0.33234   0.70169   0.51154   0.00000  Uiso   1.00
C107   C     0.31604   0.72714   0.36589   0.00000  Uiso   1.00
C108   C     0.30231   0.76427   0.39550   0.00000  Uiso   1.00
C109   C     0.28861   0.78275   0.24434   0.00000  Uiso   1.00
C110   C     0.36509   0.69405   0.43857   0.00000  Uiso   1.00
C111   C     0.39259   0.70336   0.52932   0.00000  Uiso   1.00
C112   C     0.42017   0.69397   0.43937   0.00000  Uiso   1.00
C113   C     0.31593   0.66113   0.51014   0.00000  Uiso   1.00
C114   C     0.30211   0.64274   0.66106   0.00000  Uiso   1.00
C115   C     0.28831   0.60563   0.63138   0.00000  Uiso   1.00
H116   H     0.33244   0.65443   0.05466   0.00000  Uiso   1.00
H117   H     0.30243   0.71356   0.90529   0.00000  Uiso   1.00
H118   H     0.39269   0.65265   0.03910   0.00000  Uiso   1.00
H119   H     0.30223   0.59205   0.17082   0.00000  Uiso   1.00
H120   H     0.26915   0.78707   0.81658   0.00000  Uiso   1.00
H121   H     0.45948   0.65862   0.09875   0.00000  Uiso   1.00
H122   H     0.26871   0.53083   0.37652   0.00000  Uiso   1.00
H123   H     0.33231   0.71574   0.64733   0.00000  Uiso   1.00
H124   H     0.30229   0.77822   0.53049   0.00000  Uiso   1.00
H125   H     0.39256   0.71731   0.66429   0.00000  Uiso   1.00
H126   H     0.30209   0.65671   0.79601   0.00000  Uiso   1.00
H127   H     0.26904   0.83955   0.32401   0.00000  Uiso   1.00
H128   H     0.45937   0.71111   0.60618   0.00000  Uiso   1.00
H129   H     0.26860   0.58332   0.88395   0.00000  Uiso   1.00
O130   O     0.24936   0.85332   0.98273   0.00000  Uiso   1.00
O131   O     0.49906   0.68480   0.35293   0.00000  Uiso   1.00
O132   O     0.24877   0.51714   0.71735   0.00000  Uiso   1.00
N133   N     0.27324   0.79084   0.95205   0.00000  Uiso   1.00
N134   N     0.45119   0.67076   0.21585   0.00000  Uiso   1.00
N135   N     0.27284   0.55128   0.47555   0.00000  Uiso   1.00
N136   N     0.27318   0.81908   0.22510   0.00000  Uiso   1.00
N137   N     0.45112   0.69900   0.48889   0.00000  Uiso   1.00
N138   N     0.27278   0.57952   0.74859   0.00000  Uiso   1.00
C139   C     0.33241   0.16848   0.69044   0.00000  Uiso   1.00
C140   C     0.31608   0.20910   0.69147   0.00000  Uiso   1.00
C141   C     0.30239   0.22753   0.54024   0.00000  Uiso   1.00
C142   C     0.28865   0.26468   0.56962   0.00000  Uiso   1.00
C143   C     0.26332   0.32501   0.54467   0.00000  Uiso   1.00
C144   C     0.36513   0.17601   0.76417   0.00000  Uiso   1.00
C145   C     0.39267   0.16661   0.67406   0.00000  Uiso   1.00
C146   C     0.42021   0.17590   0.76464   0.00000  Uiso   1.00
C147   C     0.47102   0.18484   0.85261   0.00000  Uiso   1.00
C148   C     0.31597   0.14309   0.83572   0.00000  Uiso   1.00
C149   C     0.30219   0.10600   0.80581   0.00000  Uiso   1.00
C150   C     0.28835   0.08756   0.95665   0.00000  Uiso   1.00
C151   C     0.26284   0.04538   0.15573   0.00000  Uiso   1.00
C152   C     0.33234   0.20169   0.01154   0.00000  Uiso   1.00
C153   C     0.31604   0.22714   0.86589   0.00000  Uiso   1.00
C154   C     0.30231   0.26427   0.89550   0.00000  Uiso   1.00
C155   C     0.28861   0.28275   0.74434   0.00000  Uiso   1.00
C156   C     0.36509   0.19405   0.93857   0.00000  Uiso   1.00
C157   C     0.39259   0.20336   0.02932   0.00000  Uiso   1.00
C158   C     0.42017   0.19397   0.93937   0.00000  Uiso   1.00
C159   C     0.31593   0.16113   0.01014   0.00000  Uiso   1.00
C160   C     0.30211   0.14274   0.16106   0.00000  Uiso   1.00
C161   C     0.28831   0.10563   0.13138   0.00000  Uiso   1.00
H162   H     0.33244   0.15443   0.55466   0.00000  Uiso   1.00
H163   H     0.30243   0.21356   0.40529   0.00000  Uiso   1.00
H164   H     0.39269   0.15265   0.53910   0.00000  Uiso   1.00
H165   H     0.30223   0.09205   0.67082   0.00000  Uiso   1.00
H166   H     0.26915   0.28707   0.31658   0.00000  Uiso   1.00
H167   H     0.45948   0.15862   0.59875   0.00000  Uiso   1.00
H168   H     0.26871   0.03083   0.87652   0.00000  Uiso   1.00
H169   H     0.33231   0.21574   0.14733   0.00000  Uiso   1.00
H170   H     0.30229   0.27822   0.03049   0.00000  Uiso   1.00
H171   H     0.39256   0.21731   0.16429   0.00000  Uiso   1.00
H172   H     0.30209   0.15671   0.29601   0.00000  Uiso   1.00
H173   H     0.26904   0.33955   0.82401   0.00000  Uiso   1.00
H174   H     0.45937   0.21111   0.10618   0.00000  Uiso   1.00
H175   H     0.26860   0.08332   0.38395   0.00000  Uiso   1.00
O176   O     0.24936   0.35332   0.48273   0.00000  Uiso   1.00
O177   O     0.49906   0.18480   0.85293   0.00000  Uiso   1.00
O178   O     0.24877   0.01714   0.21735   0.00000  Uiso   1.00
N179   N     0.27324   0.29084   0.45205   0.00000  Uiso   1.00
N180   N     0.45119   0.17076   0.71585   0.00000  Uiso   1.00
N181   N     0.27284   0.05128   0.97555   0.00000  Uiso   1.00
N182   N     0.27318   0.31908   0.72510   0.00000  Uiso   1.00
N183   N     0.45112   0.19900   0.98889   0.00000  Uiso   1.00
N184   N     0.27278   0.07952   0.24859   0.00000  Uiso   1.00
C185   C     0.16759   0.33152   0.69044   0.00000  Uiso   1.00
C186   C     0.18392   0.29090   0.69147   0.00000  Uiso   1.00
C187   C     0.19761   0.27247   0.54024   0.00000  Uiso   1.00
C188   C     0.21135   0.23532   0.56962   0.00000  Uiso   1.00
C189   C     0.23668   0.17499   0.54467   0.00000  Uiso   1.00
C190   C     0.13487   0.32399   0.76417   0.00000  Uiso   1.00
C191   C     0.10733   0.33339   0.67406   0.00000  Uiso   1.00
C192   C     0.07979   0.32410   0.76464   0.00000  Uiso   1.00
C193   C     0.02898   0.31516   0.85261   0.00000  Uiso   1.00
C194   C     0.18403   0.35691   0.83572   0.00000  Uiso   1.00
C195   C     0.19781   0.39400   0.80581   0.00000  Uiso   1.00
C196   C     0.21165   0.41244   0.95665   0.00000  Uiso   1.00
C197   C     0.23716   0.45462   0.15573   0.00000  Uiso   1.00
C198   C     0.16766   0.29831   0.01154   0.00000  Uiso   1.00
C199   C     0.18396   0.27286   0.86589   0.00000  Uiso   1.00
C200   C     0.19769   0.23573   0.89550   0.00000  Uiso   1.00
C201   C     0.21139   0.21725   0.74434   0.00000  Uiso   1.00
C202   C     0.13491   0.30595   0.93857   0.00000  Uiso   1.00
C203   C     0.10741   0.29664   0.02932   0.00000  Uiso   1.00
C204   C     0.07983   0.30603   0.93937   0.00000  Uiso   1.00
C205   C     0.18407   0.33887   0.01014   0.00000  Uiso   1.00
C206   C     0.19789   0.35726   0.16106   0.00000  Uiso   1.00
C207   C     0.21169   0.39437   0.13138   0.00000  Uiso   1.00
H208   H     0.16756   0.34557   0.55466   0.00000  Uiso   1.00
H209   H     0.19757   0.28644   0.40529   0.00000  Uiso   1.00
H210   H     0.10731   0.34735   0.53910   0.00000  Uiso   1.00
H211   H     0.19777   0.40795   0.67082   0.00000  Uiso   1.00
H212   H     0.23085   0.21293   0.31658   0.00000  Uiso   1.00
H213   H     0.04052   0.34138   0.59875   0.00000  Uiso   1.00
H214   H     0.23129   0.46917   0.87652   0.00000  Uiso   1.00
H215   H     0.16769   0.28426   0.14733   0.00000  Uiso   1.00
H216   H     0.19771   0.22178   0.03049   0.00000  Uiso   1.00
H217   H     0.10744   0.28269   0.16429   0.00000  Uiso   1.00
H218   H     0.19791   0.34329   0.29601   0.00000  Uiso   1.00
H219   H     0.23096   0.16045   0.82401   0.00000  Uiso   1.00
H220   H     0.04063   0.28889   0.10618   0.00000  Uiso   1.00
H221   H     0.23140   0.41668   0.38395   0.00000  Uiso   1.00
O222   O     0.25064   0.14668   0.48273   0.00000  Uiso   1.00
O223   O     0.00094   0.31520   0.85293   0.00000  Uiso   1.00
O224   O     0.25123   0.48286   0.21735   0.00000  Uiso   1.00
N225   N     0.22676   0.20916   0.45205   0.00000  Uiso   1.00
N226   N     0.04881   0.32924   0.71585   0.00000  Uiso   1.00
N227   N     0.22716   0.44872   0.97555   0.00000  Uiso   1.00
N228   N     0.22682   0.18092   0.72510   0.00000  Uiso   1.00
N229   N     0.04888   0.30100   0.98889   0.00000  Uiso   1.00
N230   N     0.22722   0.42048   0.24859   0.00000  Uiso   1.00
C231   C     0.16759   0.83152   0.19044   0.00000  Uiso   1.00
C232   C     0.18392   0.79090   0.19147   0.00000  Uiso   1.00
C233   C     0.19761   0.77247   0.04024   0.00000  Uiso   1.00
C234   C     0.21135   0.73532   0.06962   0.00000  Uiso   1.00
C235   C     0.23668   0.67499   0.04467   0.00000  Uiso   1.00
C236   C     0.13487   0.82399   0.26417   0.00000  Uiso   1.00
C237   C     0.10733   0.83339   0.17406   0.00000  Uiso   1.00
C238   C     0.07979   0.82410   0.26464   0.00000  Uiso   1.00
C239   C     0.02898   0.81516   0.35261   0.00000  Uiso   1.00
C240   C     0.18403   0.85691   0.33572   0.00000  Uiso   1.00
C241   C     0.19781   0.89400   0.30581   0.00000  Uiso   1.00
C242   C     0.21165   0.91244   0.45665   0.00000  Uiso   1.00
C243   C     0.23716   0.95462   0.65573   0.00000  Uiso   1.00
C244   C     0.16766   0.79831   0.51154   0.00000  Uiso   1.00
C245   C     0.18396   0.77286   0.36589   0.00000  Uiso   1.00
C246   C     0.19769   0.73573   0.39550   0.00000  Uiso   1.00
C247   C     0.21139   0.71725   0.24434   0.00000  Uiso   1.00
C248   C     0.13491   0.80595   0.43857   0.00000  Uiso   1.00
C249   C     0.10741   0.79664   0.52932   0.00000  Uiso   1.00
C250   C     0.07983   0.80603   0.43937   0.00000  Uiso   1.00
C251   C     0.18407   0.83887   0.51014   0.00000  Uiso   1.00
C252   C     0.19789   0.85726   0.66106   0.00000  Uiso   1.00
C253   C     0.21169   0.89437   0.63138   0.00000  Uiso   1.00
H254   H     0.16756   0.84557   0.05466   0.00000  Uiso   1.00
H255   H     0.19757   0.78644   0.90529   0.00000  Uiso   1.00
H256   H     0.10731   0.84735   0.03910   0.00000  Uiso   1.00
H257   H     0.19777   0.90795   0.17082   0.00000  Uiso   1.00
H258   H     0.23085   0.71293   0.81658   0.00000  Uiso   1.00
H259   H     0.04052   0.84138   0.09875   0.00000  Uiso   1.00
H260   H     0.23129   0.96917   0.37652   0.00000  Uiso   1.00
H261   H     0.16769   0.78426   0.64733   0.00000  Uiso   1.00
H262   H     0.19771   0.72178   0.53049   0.00000  Uiso   1.00
H263   H     0.10744   0.78269   0.66429   0.00000  Uiso   1.00
H264   H     0.19791   0.84329   0.79601   0.00000  Uiso   1.00
H265   H     0.23096   0.66045   0.32401   0.00000  Uiso   1.00
H266   H     0.04063   0.78889   0.60618   0.00000  Uiso   1.00
H267   H     0.23140   0.91668   0.88395   0.00000  Uiso   1.00
O268   O     0.25064   0.64668   0.98273   0.00000  Uiso   1.00
O269   O     0.00094   0.81520   0.35293   0.00000  Uiso   1.00
O270   O     0.25123   0.98286   0.71735   0.00000  Uiso   1.00
N271   N     0.22676   0.70916   0.95205   0.00000  Uiso   1.00
N272   N     0.04881   0.82924   0.21585   0.00000  Uiso   1.00
N273   N     0.22716   0.94872   0.47555   0.00000  Uiso   1.00
N274   N     0.22682   0.68092   0.22510   0.00000  Uiso   1.00
N275   N     0.04888   0.80100   0.48889   0.00000  Uiso   1.00
N276   N     0.22722   0.92048   0.74859   0.00000  Uiso   1.00
C277   C     0.66759   0.33152   0.19044   0.00000  Uiso   1.00
C278   C     0.68392   0.29090   0.19147   0.00000  Uiso   1.00
C279   C     0.69761   0.27247   0.04024   0.00000  Uiso   1.00
C280   C     0.71135   0.23532   0.06962   0.00000  Uiso   1.00
C281   C     0.73668   0.17499   0.04467   0.00000  Uiso   1.00
C282   C     0.63487   0.32399   0.26417   0.00000  Uiso   1.00
C283   C     0.60733   0.33339   0.17406   0.00000  Uiso   1.00
C284   C     0.57979   0.32410   0.26464   0.00000  Uiso   1.00
C285   C     0.52898   0.31516   0.35261   0.00000  Uiso   1.00
C286   C     0.68403   0.35691   0.33572   0.00000  Uiso   1.00
C287   C     0.69781   0.39400   0.30581   0.00000  Uiso   1.00
C288   C     0.71165   0.41244   0.45665   0.00000  Uiso   1.00
C289   C     0.73716   0.45462   0.65573   0.00000  Uiso   1.00
C290   C     0.66766   0.29831   0.51154   0.00000  Uiso   1.00
C291   C     0.68396   0.27286   0.36589   0.00000  Uiso   1.00
C292   C     0.69769   0.23573   0.39550   0.00000  Uiso   1.00
C293   C     0.71139   0.21725   0.24434   0.00000  Uiso   1.00
C294   C     0.63491   0.30595   0.43857   0.00000  Uiso   1.00
C295   C     0.60741   0.29664   0.52932   0.00000  Uiso   1.00
C296   C     0.57983   0.30603   0.43937   0.00000  Uiso   1.00
C297   C     0.68407   0.33887   0.51014   0.00000  Uiso   1.00
C298   C     0.69789   0.35726   0.66106   0.00000  Uiso   1.00
C299   C     0.71169   0.39437   0.63138   0.00000  Uiso   1.00
H300   H     0.66756   0.34557   0.05466   0.00000  Uiso   1.00
H301   H     0.69757   0.28644   0.90529   0.00000  Uiso   1.00
H302   H     0.60731   0.34735   0.03910   0.00000  Uiso   1.00
H303   H     0.69777   0.40795   0.17082   0.00000  Uiso   1.00
H304   H     0.73085   0.21293   0.81658   0.00000  Uiso   1.00
H305   H     0.54052   0.34138   0.09875   0.00000  Uiso   1.00
H306   H     0.73129   0.46917   0.37652   0.00000  Uiso   1.00
H307   H     0.66769   0.28426   0.64733   0.00000  Uiso   1.00
H308   H     0.69771   0.22178   0.53049   0.00000  Uiso   1.00
H309   H     0.60744   0.28269   0.66429   0.00000  Uiso   1.00
H310   H     0.69791   0.34329   0.79601   0.00000  Uiso   1.00
H311   H     0.73096   0.16045   0.32401   0.00000  Uiso   1.00
H312   H     0.54063   0.28889   0.60618   0.00000  Uiso   1.00
H313   H     0.73140   0.41668   0.88395   0.00000  Uiso   1.00
O314   O     0.75064   0.14668   0.98273   0.00000  Uiso   1.00
O315   O     0.50094   0.31520   0.35293   0.00000  Uiso   1.00
O316   O     0.75123   0.48286   0.71735   0.00000  Uiso   1.00
N317   N     0.72676   0.20916   0.95205   0.00000  Uiso   1.00
N318   N     0.54881   0.32924   0.21585   0.00000  Uiso   1.00
N319   N     0.72716   0.44872   0.47555   0.00000  Uiso   1.00
N320   N     0.72682   0.18092   0.22510   0.00000  Uiso   1.00
N321   N     0.54888   0.30100   0.48889   0.00000  Uiso   1.00
N322   N     0.72722   0.42048   0.74859   0.00000  Uiso   1.00
C323   C     0.66759   0.83152   0.69044   0.00000  Uiso   1.00
C324   C     0.68392   0.79090   0.69147   0.00000  Uiso   1.00
C325   C     0.69761   0.77247   0.54024   0.00000  Uiso   1.00
C326   C     0.71135   0.73532   0.56962   0.00000  Uiso   1.00
C327   C     0.73668   0.67499   0.54467   0.00000  Uiso   1.00
C328   C     0.63487   0.82399   0.76417   0.00000  Uiso   1.00
C329   C     0.60733   0.83339   0.67406   0.00000  Uiso   1.00
C330   C     0.57979   0.82410   0.76464   0.00000  Uiso   1.00
C331   C     0.52898   0.81516   0.85261   0.00000  Uiso   1.00
C332   C     0.68403   0.85691   0.83572   0.00000  Uiso   1.00
C333   C     0.69781   0.89400   0.80581   0.00000  Uiso   1.00
C334   C     0.71165   0.91244   0.95665   0.00000  Uiso   1.00
C335   C     0.73716   0.95462   0.15573   0.00000  Uiso   1.00
C336   C     0.66766   0.79831   0.01154   0.00000  Uiso   1.00
C337   C     0.68396   0.77286   0.86589   0.00000  Uiso   1.00
C338   C     0.69769   0.73573   0.89550   0.00000  Uiso   1.00
C339   C     0.71139   0.71725   0.74434   0.00000  Uiso   1.00
C340   C     0.63491   0.80595   0.93857   0.00000  Uiso   1.00
C341   C     0.60741   0.79664   0.02932   0.00000  Uiso   1.00
C342   C     0.57983   0.80603   0.93937   0.00000  Uiso   1.00
C343   C     0.68407   0.83887   0.01014   0.00000  Uiso   1.00
C344   C     0.69789   0.85726   0.16106   0.00000  Uiso   1.00
C345   C     0.71169   0.89437   0.13138   0.00000  Uiso   1.00
H346   H     0.66756   0.84557   0.55466   0.00000  Uiso   1.00
H347   H     0.69757   0.78644   0.40529   0.00000  Uiso   1.00
H348   H     0.60731   0.84735   0.53910   0.00000  Uiso   1.00
H349   H     0.69777   0.90795   0.67082   0.00000  Uiso   1.00
H350   H     0.73085   0.71293   0.31658   0.00000  Uiso   1.00
H351   H     0.54052   0.84138   0.59875   0.00000  Uiso   1.00
H352   H     0.73129   0.96917   0.87652   0.00000  Uiso   1.00
H353   H     0.66769   0.78426   0.14733   0.00000  Uiso   1.00
H354   H     0.69771   0.72178   0.03049   0.00000  Uiso   1.00
H355   H     0.60744   0.78269   0.16429   0.00000  Uiso   1.00
H356   H     0.69791   0.84329   0.29601   0.00000  Uiso   1.00
H357   H     0.73096   0.66045   0.82401   0.00000  Uiso   1.00
H358   H     0.54063   0.78889   0.10618   0.00000  Uiso   1.00
H359   H     0.73140   0.91668   0.38395   0.00000  Uiso   1.00
O360   O     0.75064   0.64668   0.48273   0.00000  Uiso   1.00
O361   O     0.50094   0.81520   0.85293   0.00000  Uiso   1.00
O362   O     0.75123   0.98286   0.21735   0.00000  Uiso   1.00
N363   N     0.72676   0.70916   0.45205   0.00000  Uiso   1.00
N364   N     0.54881   0.82924   0.71585   0.00000  Uiso   1.00
N365   N     0.72716   0.94872   0.97555   0.00000  Uiso   1.00
N366   N     0.72682   0.68092   0.72510   0.00000  Uiso   1.00
N367   N     0.54888   0.80100   0.98889   0.00000  Uiso   1.00
N368   N     0.72722   0.92048   0.24859   0.00000  Uiso   1.00
C369   C     0.08241   0.58152   0.94044   0.00000  Uiso   1.00
C370   C     0.06608   0.54090   0.94147   0.00000  Uiso   1.00
C371   C     0.05239   0.52247   0.79024   0.00000  Uiso   1.00
C372   C     0.03865   0.48532   0.81962   0.00000  Uiso   1.00
C373   C     0.01332   0.42499   0.79467   0.00000  Uiso   1.00
C374   C     0.11513   0.57399   0.01417   0.00000  Uiso   1.00
C375   C     0.14267   0.58339   0.92406   0.00000  Uiso   1.00
C376   C     0.17021   0.57410   0.01464   0.00000  Uiso   1.00
C377   C     0.22102   0.56516   0.10261   0.00000  Uiso   1.00
C378   C     0.06597   0.60691   0.08572   0.00000  Uiso   1.00
C379   C     0.05219   0.64400   0.05581   0.00000  Uiso   1.00
C380   C     0.03835   0.66244   0.20665   0.00000  Uiso   1.00
C381   C     0.01284   0.70462   0.40573   0.00000  Uiso   1.00
C382   C     0.08234   0.54831   0.26154   0.00000  Uiso   1.00
C383   C     0.06604   0.52286   0.11589   0.00000  Uiso   1.00
C384   C     0.05231   0.48573   0.14550   0.00000  Uiso   1.00
C385   C     0.03861   0.46725   0.99434   0.00000  Uiso   1.00
C386   C     0.11509   0.55595   0.18857   0.00000  Uiso   1.00
C387   C     0.14259   0.54664   0.27932   0.00000  Uiso   1.00
C388   C     0.17017   0.55603   0.18937   0.00000  Uiso   1.00
C389   C     0.06593   0.58887   0.26014   0.00000  Uiso   1.00
C390   C     0.05211   0.60726   0.41106   0.00000  Uiso   1.00
C391   C     0.03831   0.64437   0.38138   0.00000  Uiso   1.00
H392   H     0.08244   0.59557   0.80466   0.00000  Uiso   1.00
H393   H     0.05243   0.53644   0.65529   0.00000  Uiso   1.00
H394   H     0.14269   0.59735   0.78910   0.00000  Uiso   1.00
H395   H     0.05223   0.65795   0.92082   0.00000  Uiso   1.00
H396   H     0.01915   0.46293   0.56658   0.00000  Uiso   1.00
H397   H     0.20948   0.59138   0.84875   0.00000  Uiso   1.00
H398   H     0.01871   0.71917   0.12652   0.00000  Uiso   1.00
H399   H     0.08231   0.53426   0.39733   0.00000  Uiso   1.00
H400   H     0.05229   0.47178   0.28049   0.00000  Uiso   1.00
H401   H     0.14256   0.53269   0.41429   0.00000  Uiso   1.00
H402   H     0.05209   0.59329   0.54601   0.00000  Uiso   1.00
H403   H     0.01904   0.41045   0.07401   0.00000  Uiso   1.00
H404   H     0.20937   0.53889   0.35618   0.00000  Uiso   1.00
H405   H     0.01860   0.66668   0.63395   0.00000  Uiso   1.00
O406   O     0.99936   0.39668   0.73273   0.00000  Uiso   1.00
O407   O     0.24906   0.56520   0.10293   0.00000  Uiso   1.00
O408   O     0.99877   0.73286   0.46735   0.00000  Uiso   1.00
N409   N     0.02324   0.45916   0.70205   0.00000  Uiso   1.00
N410   N     0.20119   0.57924   0.96585   0.00000  Uiso   1.00
N411   N     0.02284   0.69872   0.22555   0.00000  Uiso   1.00
N412   N     0.02318   0.43092   0.97510   0.00000  Uiso   1.00
N413   N     0.20112   0.55100   0.23889   0.00000  Uiso   1.00
N414   N     0.02278   0.67048   0.49859   0.00000  Uiso   1.00
C415   C     0.08241   0.08152   0.44044   0.00000  Uiso   1.00
C416   C     0.06608   0.04090   0.44147   0.00000  Uiso   1.00
C417   C     0.05239   0.02247   0.29024   0.00000  Uiso   1.00
C418   C     0.03865   0.98532   0.31962   0.00000  Uiso   1.00
C419   C     0.01332   0.92499   0.29467   0.00000  Uiso   1.00
C420   C     0.11513   0.07399   0.51417   0.00000  Uiso   1.00
C421   C     0.14267   0.08339   0.42406   0.00000  Uiso   1.00
C422   C     0.17021   0.07410   0.51464   0.00000  Uiso   1.00
C423   C     0.22102   0.06516   0.60261   0.00000  Uiso   1.00
C424   C     0.06597   0.10691   0.58572   0.00000  Uiso   1.00
C425   C     0.05219   0.14400   0.55581   0.00000  Uiso   1.00
C426   C     0.03835   0.16244   0.70665   0.00000  Uiso   1.00
C427   C     0.01284   0.20462   0.90573   0.00000  Uiso   1.00
C428   C     0.08234   0.04831   0.76154   0.00000  Uiso   1.00
C429   C     0.06604   0.02286   0.61589   0.00000  Uiso   1.00
C430   C     0.05231   0.98573   0.64550   0.00000  Uiso   1.00
C431   C     0.03861   0.96725   0.49434   0.00000  Uiso   1.00
C432   C     0.11509   0.05595   0.68857   0.00000  Uiso   1.00
C433   C     0.14259   0.04664   0.77932   0.00000  Uiso   1.00
C434   C     0.17017   0.05603   0.68937   0.00000  Uiso   1.00
C435   C     0.06593   0.08887   0.76014   0.00000  Uiso   1.00
C436   C     0.05211   0.10726   0.91106   0.00000  Uiso   1.00
C437   C     0.03831   0.14437   0.88138   0.00000  Uiso   1.00
H438   H     0.08244   0.09557   0.30466   0.00000  Uiso   1.00
H439   H     0.05243   0.03644   0.15529   0.00000  Uiso   1.00
H440   H     0.14269   0.09735   0.28910   0.00000  Uiso   1.00
H441   H     0.05223   0.15795   0.42082   0.00000  Uiso   1.00
H442   H     0.01915   0.96293   0.06658   0.00000  Uiso   1.00
H443   H     0.20948   0.09138   0.34875   0.00000  Uiso   1.00
H444   H     0.01871   0.21917   0.62652   0.00000  Uiso   1.00
H445   H     0.08231   0.03426   0.89733   0.00000  Uiso   1.00
H446   H     0.05229   0.97178   0.78049   0.00000  Uiso   1.00
H447   H     0.14256   0.03269   0.91429   0.00000  Uiso   1.00
H448   H     0.05209   0.09329   0.04601   0.00000  Uiso   1.00
H449   H     0.01904   0.91045   0.57401   0.00000  Uiso   1.00
H450   H     0.20937   0.03889   0.85618   0.00000  Uiso   1.00
H451   H     0.01860   0.16668   0.13395   0.00000  Uiso   1.00
O452   O     0.99936   0.89668   0.23273   0.00000  Uiso   1.00
O453   O     0.24906   0.06520   0.60293   0.00000  Uiso   1.00
O454   O     0.99877   0.23286   0.96735   0.00000  Uiso   1.00
N455   N     0.02324   0.95916   0.20205   0.00000  Uiso   1.00
N456   N     0.20119   0.07924   0.46585   0.00000  Uiso   1.00
N457   N     0.02284   0.19872   0.72555   0.00000  Uiso   1.00
N458   N     0.02318   0.93092   0.47510   0.00000  Uiso   1.00
N459   N     0.20112   0.05100   0.73889   0.00000  Uiso   1.00
N460   N     0.02278   0.17048   0.99859   0.00000  Uiso   1.00
C461   C     0.58241   0.58152   0.44044   0.00000  Uiso   1.00
C462   C     0.56608   0.54090   0.44147   0.00000  Uiso   1.00
C463   C     0.55239   0.52247   0.29024   0.00000  Uiso   1.00
C464   C     0.53865   0.48532   0.31962   0.00000  Uiso   1.00
C465   C     0.51332   0.42499   0.29467   0.00000  Uiso   1.00
C466   C     0.61513   0.57399   0.51417   0.00000  Uiso   1.00
C467   C     0.64267   0.58339   0.42406   0.00000  Uiso   1.00
C468   C     0.67021   0.57410   0.51464   0.00000  Uiso   1.00
C469   C     0.72102   0.56516   0.60261   0.00000  Uiso   1.00
C470   C     0.56597   0.60691   0.58572   0.00000  Uiso   1.00
C471   C     0.55219   0.64400   0.55581   0.00000  Uiso   1.00
C472   C     0.53835   0.66244   0.70665   0.00000  Uiso   1.00
C473   C     0.51284   0.70462   0.90573   0.00000  Uiso   1.00
C474   C     0.58234   0.54831   0.76154   0.00000  Uiso   1.00
C475   C     0.56604   0.52286   0.61589   0.00000  Uiso   1.00
C476   C     0.55231   0.48573   0.64550   0.00000  Uiso   1.00
C477   C     0.53861   0.46725   0.49434   0.00000  Uiso   1.00
C478   C     0.61509   0.55595   0.68857   0.00000  Uiso   1.00
C479   C     0.64259   0.54664   0.77932   0.00000  Uiso   1.00
C480   C     0.67017   0.55603   0.68937   0.00000  Uiso   1.00
C481   C     0.56593   0.58887   0.76014   0.00000  Uiso   1.00
C482   C     0.55211   0.60726   0.91106   0.00000  Uiso   1.00
C483   C     0.53831   0.64437   0.88138   0.00000  Uiso   1.00
H484   H     0.58244   0.59557   0.30466   0.00000  Uiso   1.00
H485   H     0.55243   0.53644   0.15529   0.00000  Uiso   1.00
H486   H     0.64269   0.59735   0.28910   0.00000  Uiso   1.00
H487   H     0.55223   0.65795   0.42082   0.00000  Uiso   1.00
H488   H     0.51915   0.46293   0.06658   0.00000  Uiso   1.00
H489   H     0.70948   0.59138   0.34875   0.00000  Uiso   1.00
H490   H     0.51871   0.71917   0.62652   0.00000  Uiso   1.00
H491   H     0.58231   0.53426   0.89733   0.00000  Uiso   1.00
H492   H     0.55229   0.47178   0.78049   0.00000  Uiso   1.00
H493   H     0.64256   0.53269   0.91429   0.00000  Uiso   1.00
H494   H     0.55209   0.59329   0.04601   0.00000  Uiso   1.00
H495   H     0.51904   0.41045   0.57401   0.00000  Uiso   1.00
H496   H     0.70937   0.53889   0.85618   0.00000  Uiso   1.00
H497   H     0.51860   0.66668   0.13395   0.00000  Uiso   1.00
O498   O     0.49936   0.39668   0.23273   0.00000  Uiso   1.00
O499   O     0.74906   0.56520   0.60293   0.00000  Uiso   1.00
O500   O     0.49877   0.73286   0.96735   0.00000  Uiso   1.00
N501   N     0.52324   0.45916   0.20205   0.00000  Uiso   1.00
N502   N     0.70119   0.57924   0.46585   0.00000  Uiso   1.00
N503   N     0.52284   0.69872   0.72555   0.00000  Uiso   1.00
N504   N     0.52318   0.43092   0.47510   0.00000  Uiso   1.00
N505   N     0.70112   0.55100   0.73889   0.00000  Uiso   1.00
N506   N     0.52278   0.67048   0.99859   0.00000  Uiso   1.00
C507   C     0.58241   0.08152   0.94044   0.00000  Uiso   1.00
C508   C     0.56608   0.04090   0.94147   0.00000  Uiso   1.00
C509   C     0.55239   0.02247   0.79024   0.00000  Uiso   1.00
C510   C     0.53865   0.98532   0.81962   0.00000  Uiso   1.00
C511   C     0.51332   0.92499   0.79467   0.00000  Uiso   1.00
C512   C     0.61513   0.07399   0.01417   0.00000  Uiso   1.00
C513   C     0.64267   0.08339   0.92406   0.00000  Uiso   1.00
C514   C     0.67021   0.07410   0.01464   0.00000  Uiso   1.00
C515   C     0.72102   0.06516   0.10261   0.00000  Uiso   1.00
C516   C     0.56597   0.10691   0.08572   0.00000  Uiso   1.00
C517   C     0.55219   0.14400   0.05581   0.00000  Uiso   1.00
C518   C     0.53835   0.16244   0.20665   0.00000  Uiso   1.00
C519   C     0.51284   0.20462   0.40573   0.00000  Uiso   1.00
C520   C     0.58234   0.04831   0.26154   0.00000  Uiso   1.00
C521   C     0.56604   0.02286   0.11589   0.00000  Uiso   1.00
C522   C     0.55231   0.98573   0.14550   0.00000  Uiso   1.00
C523   C     0.53861   0.96725   0.99434   0.00000  Uiso   1.00
C524   C     0.61509   0.05595   0.18857   0.00000  Uiso   1.00
C525   C     0.64259   0.04664   0.27932   0.00000  Uiso   1.00
C526   C     0.67017   0.05603   0.18937   0.00000  Uiso   1.00
C527   C     0.56593   0.08887   0.26014   0.00000  Uiso   1.00
C528   C     0.55211   0.10726   0.41106   0.00000  Uiso   1.00
C529   C     0.53831   0.14437   0.38138   0.00000  Uiso   1.00
H530   H     0.58244   0.09557   0.80466   0.00000  Uiso   1.00
H531   H     0.55243   0.03644   0.65529   0.00000  Uiso   1.00
H532   H     0.64269   0.09735   0.78910   0.00000  Uiso   1.00
H533   H     0.55223   0.15795   0.92082   0.00000  Uiso   1.00
H534   H     0.51915   0.96293   0.56658   0.00000  Uiso   1.00
H535   H     0.70948   0.09138   0.84875   0.00000  Uiso   1.00
H536   H     0.51871   0.21917   0.12652   0.00000  Uiso   1.00
H537   H     0.58231   0.03426   0.39733   0.00000  Uiso   1.00
H538   H     0.55229   0.97178   0.28049   0.00000  Uiso   1.00
H539   H     0.64256   0.03269   0.41429   0.00000  Uiso   1.00
H540   H     0.55209   0.09329   0.54601   0.00000  Uiso   1.00
H541   H     0.51904   0.91045   0.07401   0.00000  Uiso   1.00
H542   H     0.70937   0.03889   0.35618   0.00000  Uiso   1.00
H543   H     0.51860   0.16668   0.63395   0.00000  Uiso   1.00
O544   O     0.49936   0.89668   0.73273   0.00000  Uiso   1.00
O545   O     0.74906   0.06520   0.10293   0.00000  Uiso   1.00
O546   O     0.49877   0.23286   0.46735   0.00000  Uiso   1.00
N547   N     0.52324   0.95916   0.70205   0.00000  Uiso   1.00
N548   N     0.70119   0.07924   0.96585   0.00000  Uiso   1.00
N549   N     0.52284   0.19872   0.22555   0.00000  Uiso   1.00
N550   N     0.52318   0.93092   0.97510   0.00000  Uiso   1.00
N551   N     0.70112   0.05100   0.23889   0.00000  Uiso   1.00
N552   N     0.52278   0.17048   0.49859   0.00000  Uiso   1.00
C553   C     0.41759   0.91848   0.94044   0.00000  Uiso   1.00
C554   C     0.43392   0.95910   0.94147   0.00000  Uiso   1.00
C555   C     0.44761   0.97753   0.79024   0.00000  Uiso   1.00
C556   C     0.46135   0.01468   0.81962   0.00000  Uiso   1.00
C557   C     0.48668   0.07501   0.79467   0.00000  Uiso   1.00
C558   C     0.38487   0.92601   0.01417   0.00000  Uiso   1.00
C559   C     0.35733   0.91661   0.92406   0.00000  Uiso   1.00
C560   C     0.32979   0.92590   0.01464   0.00000  Uiso   1.00
C561   C     0.27898   0.93484   0.10261   0.00000  Uiso   1.00
C562   C     0.43403   0.89309   0.08572   0.00000  Uiso   1.00
C563   C     0.44781   0.85600   0.05581   0.00000  Uiso   1.00
C564   C     0.46165   0.83756   0.20665   0.00000  Uiso   1.00
C565   C     0.48716   0.79538   0.40573   0.00000  Uiso   1.00
C566   C     0.41766   0.95169   0.26154   0.00000  Uiso   1.00
C567   C     0.43396   0.97714   0.11589   0.00000  Uiso   1.00
C568   C     0.44769   0.01427   0.14550   0.00000  Uiso   1.00
C569   C     0.46139   0.03275   0.99434   0.00000  Uiso   1.00
C570   C     0.38491   0.94405   0.18857   0.00000  Uiso   1.00
C571   C     0.35741   0.95336   0.27932   0.00000  Uiso   1.00
C572   C     0.32983   0.94397   0.18937   0.00000  Uiso   1.00
C573   C     0.43407   0.91113   0.26014   0.00000  Uiso   1.00
C574   C     0.44789   0.89274   0.41106   0.00000  Uiso   1.00
C575   C     0.46169   0.85563   0.38138   0.00000  Uiso   1.00
H576   H     0.41756   0.90443   0.80466   0.00000  Uiso   1.00
H577   H     0.44757   0.96356   0.65529   0.00000  Uiso   1.00
H578   H     0.35731   0.90265   0.78910   0.00000  Uiso   1.00
H579   H     0.44777   0.84205   0.92082   0.00000  Uiso   1.00
H580   H     0.48085   0.03707   0.56658   0.00000  Uiso   1.00
H581   H     0.29052   0.90862   0.84875   0.00000  Uiso   1.00
H582   H     0.48129   0.78083   0.12652   0.00000  Uiso   1.00
H583   H     0.41769   0.96574   0.39733   0.00000  Uiso   1.00
H584   H     0.44771   0.02822   0.28049   0.00000  Uiso   1.00
H585   H     0.35744   0.96731   0.41429   0.00000  Uiso   1.00
H586   H     0.44791   0.90671   0.54601   0.00000  Uiso   1.00
H587   H     0.48096   0.08955   0.07401   0.00000  Uiso   1.00
H588   H     0.29063   0.96111   0.35618   0.00000  Uiso   1.00
H589   H     0.48140   0.83332   0.63395   0.00000  Uiso   1.00
O590   O     0.50064   0.10332   0.73273   0.00000  Uiso   1.00
O591   O     0.25094   0.93480   0.10293   0.00000  Uiso   1.00
O592   O     0.50123   0.76714   0.46735   0.00000  Uiso   1.00
N593   N     0.47676   0.04084   0.70205   0.00000  Uiso   1.00
N594   N     0.29881   0.92076   0.96585   0.00000  Uiso   1.00
N595   N     0.47716   0.80128   0.22555   0.00000  Uiso   1.00
N596   N     0.47682   0.06908   0.97510   0.00000  Uiso   1.00
N597   N     0.29888   0.94900   0.23889   0.00000  Uiso   1.00
N598   N     0.47722   0.82952   0.49859   0.00000  Uiso   1.00
C599   C     0.41759   0.41848   0.44044   0.00000  Uiso   1.00
C600   C     0.43392   0.45910   0.44147   0.00000  Uiso   1.00
C601   C     0.44761   0.47753   0.29024   0.00000  Uiso   1.00
C602   C     0.46135   0.51468   0.31962   0.00000  Uiso   1.00
C603   C     0.48668   0.57501   0.29467   0.00000  Uiso   1.00
C604   C     0.38487   0.42601   0.51417   0.00000  Uiso   1.00
C605   C     0.35733   0.41661   0.42406   0.00000  Uiso   1.00
C606   C     0.32979   0.42590   0.51464   0.00000  Uiso   1.00
C607   C     0.27898   0.43484   0.60261   0.00000  Uiso   1.00
C608   C     0.43403   0.39309   0.58572   0.00000  Uiso   1.00
C609   C     0.44781   0.35600   0.55581   0.00000  Uiso   1.00
C610   C     0.46165   0.33756   0.70665   0.00000  Uiso   1.00
C611   C     0.48716   0.29538   0.90573   0.00000  Uiso   1.00
C612   C     0.41766   0.45169   0.76154   0.00000  Uiso   1.00
C613   C     0.43396   0.47714   0.61589   0.00000  Uiso   1.00
C614   C     0.44769   0.51427   0.64550   0.00000  Uiso   1.00
C615   C     0.46139   0.53275   0.49434   0.00000  Uiso   1.00
C616   C     0.38491   0.44405   0.68857   0.00000  Uiso   1.00
C617   C     0.35741   0.45336   0.77932   0.00000  Uiso   1.00
C618   C     0.32983   0.44397   0.68937   0.00000  Uiso   1.00
C619   C     0.43407   0.41113   0.76014   0.00000  Uiso   1.00
C620   C     0.44789   0.39274   0.91106   0.00000  Uiso   1.00
C621   C     0.46169   0.35563   0.88138   0.00000  Uiso   1.00
H622   H     0.41756   0.40443   0.30466   0.00000  Uiso   1.00
H623   H     0.44757   0.46356   0.15529   0.00000  Uiso   1.00
H624   H     0.35731   0.40265   0.28910   0.00000  Uiso   1.00
H625   H     0.44777   0.34205   0.42082   0.00000  Uiso   1.00
H626   H     0.48085   0.53707   0.06658   0.00000  Uiso   1.00
H627   H     0.29052   0.40862   0.34875   0.00000  Uiso   1.00
H628   H     0.48129   0.28083   0.62652   0.00000  Uiso   1.00
H629   H     0.41769   0.46574   0.89733   0.00000  Uiso   1.00
H630   H     0.44771   0.52822   0.78049   0.00000  Uiso   1.00
H631   H     0.35744   0.46731   0.91429   0.00000  Uiso   1.00
H632   H     0.44791   0.40671   0.04601   0.00000  Uiso   1.00
H633   H     0.48096   0.58955   0.57401   0.00000  Uiso   1.00
H634   H     0.29063   0.46111   0.85618   0.00000  Uiso   1.00
H635   H     0.48140   0.33332   0.13395   0.00000  Uiso   1.00
O636   O     0.50064   0.60332   0.23273   0.00000  Uiso   1.00
O637   O     0.25094   0.43480   0.60293   0.00000  Uiso   1.00
O638   O     0.50123   0.26714   0.96735   0.00000  Uiso   1.00
N639   N     0.47676   0.54084   0.20205   0.00000  Uiso   1.00
N640   N     0.29881   0.42076   0.46585   0.00000  Uiso   1.00
N641   N     0.47716   0.30128   0.72555   0.00000  Uiso   1.00
N642   N     0.47682   0.56908   0.47510   0.00000  Uiso   1.00
N643   N     0.29888   0.44900   0.73889   0.00000  Uiso   1.00
N644   N     0.47722   0.32952   0.99859   0.00000  Uiso   1.00
C645   C     0.91759   0.91848   0.44044   0.00000  Uiso   1.00
C646   C     0.93392   0.95910   0.44147   0.00000  Uiso   1.00
C647   C     0.94761   0.97753   0.29024   0.00000  Uiso   1.00
C648   C     0.96135   0.01468   0.31962   0.00000  Uiso   1.00
C649   C     0.98668   0.07501   0.29467   0.00000  Uiso   1.00
C650   C     0.88487   0.92601   0.51417   0.00000  Uiso   1.00
C651   C     0.85733   0.91661   0.42406   0.00000  Uiso   1.00
C652   C     0.82979   0.92590   0.51464   0.00000  Uiso   1.00
C653   C     0.77898   0.93484   0.60261   0.00000  Uiso   1.00
C654   C     0.93403   0.89309   0.58572   0.00000  Uiso   1.00
C655   C     0.94781   0.85600   0.55581   0.00000  Uiso   1.00
C656   C     0.96165   0.83756   0.70665   0.00000  Uiso   1.00
C657   C     0.98716   0.79538   0.90573   0.00000  Uiso   1.00
C658   C     0.91766   0.95169   0.76154   0.00000  Uiso   1.00
C659   C     0.93396   0.97714   0.61589   0.00000  Uiso   1.00
C660   C     0.94769   0.01427   0.64550   0.00000  Uiso   1.00
C661   C     0.96139   0.03275   0.49434   0.00000  Uiso   1.00
C662   C     0.88491   0.94405   0.68857   0.00000  Uiso   1.00
C663   C     0.85741   0.95336   0.77932   0.00000  Uiso   1.00
C664   C     0.82983   0.94397   0.68937   0.00000  Uiso   1.00
C665   C     0.93407   0.91113   0.76014   0.00000  Uiso   1.00
C666   C     0.94789   0.89274   0.91106   0.00000  Uiso   1.00
C667   C     0.96169   0.85563   0.88138   0.00000  Uiso   1.00
H668   H     0.91756   0.90443   0.30466   0.00000  Uiso   1.00
H669   H     0.94757   0.96356   0.15529   0.00000  Uiso   1.00
H670   H     0.85731   0.90265   0.28910   0.00000  Uiso   1.00
H671   H     0.94777   0.84205   0.42082   0.00000  Uiso   1.00
H672   H     0.98085   0.03707   0.06658   0.00000  Uiso   1.00
H673   H     0.79052   0.90862   0.34875   0.00000  Uiso   1.00
H674   H     0.98129   0.78083   0.62652   0.00000  Uiso   1.00
H675   H     0.91769   0.96574   0.89733   0.00000  Uiso   1.00
H676   H     0.94771   0.02822   0.78049   0.00000  Uiso   1.00
H677   H     0.85744   0.96731   0.91429   0.00000  Uiso   1.00
H678   H     0.94791   0.90671   0.04601   0.00000  Uiso   1.00
H679   H     0.98096   0.08955   0.57401   0.00000  Uiso   1.00
H680   H     0.79063   0.96111   0.85618   0.00000  Uiso   1.00
H681   H     0.98140   0.83332   0.13395   0.00000  Uiso   1.00
O682   O     0.00064   0.10332   0.23273   0.00000  Uiso   1.00
O683   O     0.75094   0.93480   0.60293   0.00000  Uiso   1.00
O684   O     0.00123   0.76714   0.96735   0.00000  Uiso   1.00
N685   N     0.97676   0.04084   0.20205   0.00000  Uiso   1.00
N686   N     0.79881   0.92076   0.46585   0.00000  Uiso   1.00
N687   N     0.97716   0.80128   0.72555   0.00000  Uiso   1.00
N688   N     0.97682   0.06908   0.47510   0.00000  Uiso   1.00
N689   N     0.79888   0.94900   0.73889   0.00000  Uiso   1.00
N690   N     0.97722   0.82952   0.99859   0.00000  Uiso   1.00
C691   C     0.91759   0.41848   0.94044   0.00000  Uiso   1.00
C692   C     0.93392   0.45910   0.94147   0.00000  Uiso   1.00
C693   C     0.94761   0.47753   0.79024   0.00000  Uiso   1.00
C694   C     0.96135   0.51468   0.81962   0.00000  Uiso   1.00
C695   C     0.98668   0.57501   0.79467   0.00000  Uiso   1.00
C696   C     0.88487   0.42601   0.01417   0.00000  Uiso   1.00
C697   C     0.85733   0.41661   0.92406   0.00000  Uiso   1.00
C698   C     0.82979   0.42590   0.01464   0.00000  Uiso   1.00
C699   C     0.77898   0.43484   0.10261   0.00000  Uiso   1.00
C700   C     0.93403   0.39309   0.08572   0.00000  Uiso   1.00
C701   C     0.94781   0.35600   0.05581   0.00000  Uiso   1.00
C702   C     0.96165   0.33756   0.20665   0.00000  Uiso   1.00
C703   C     0.98716   0.29538   0.40573   0.00000  Uiso   1.00
C704   C     0.91766   0.45169   0.26154   0.00000  Uiso   1.00
C705   C     0.93396   0.47714   0.11589   0.00000  Uiso   1.00
C706   C     0.94769   0.51427   0.14550   0.00000  Uiso   1.00
C707   C     0.96139   0.53275   0.99434   0.00000  Uiso   1.00
C708   C     0.88491   0.44405   0.18857   0.00000  Uiso   1.00
C709   C     0.85741   0.45336   0.27932   0.00000  Uiso   1.00
C710   C     0.82983   0.44397   0.18937   0.00000  Uiso   1.00
C711   C     0.93407   0.41113   0.26014   0.00000  Uiso   1.00
C712   C     0.94789   0.39274   0.41106   0.00000  Uiso   1.00
C713   C     0.96169   0.35563   0.38138   0.00000  Uiso   1.00
H714   H     0.91756   0.40443   0.80466   0.00000  Uiso   1.00
H715   H     0.94757   0.46356   0.65529   0.00000  Uiso   1.00
H716   H     0.85731   0.40265   0.78910   0.00000  Uiso   1.00
H717   H     0.94777   0.34205   0.92082   0.00000  Uiso   1.00
H718   H     0.98085   0.53707   0.56658   0.00000  Uiso   1.00
H719   H     0.79052   0.40862   0.84875   0.00000  Uiso   1.00
H720   H     0.98129   0.28083   0.12652   0.00000  Uiso   1.00
H721   H     0.91769   0.46574   0.39733   0.00000  Uiso   1.00
H722   H     0.94771   0.52822   0.28049   0.00000  Uiso   1.00
H723   H     0.85744   0.46731   0.41429   0.00000  Uiso   1.00
H724   H     0.94791   0.40671   0.54601   0.00000  Uiso   1.00
H725   H     0.98096   0.58955   0.07401   0.00000  Uiso   1.00
H726   H     0.79063   0.46111   0.35618   0.00000  Uiso   1.00
H727   H     0.98140   0.33332   0.63395   0.00000  Uiso   1.00
O728   O     0.00064   0.60332   0.73273   0.00000  Uiso   1.00
O729   O     0.75094   0.43480   0.10293   0.00000  Uiso   1.00
O730   O     0.00123   0.26714   0.46735   0.00000  Uiso   1.00
N731   N     0.97676   0.54084   0.70205   0.00000  Uiso   1.00
N732   N     0.79881   0.42076   0.96585   0.00000  Uiso   1.00
N733   N     0.97716   0.30128   0.22555   0.00000  Uiso   1.00
N734   N     0.97682   0.56908   0.97510   0.00000  Uiso   1.00
N735   N     0.79888   0.44900   0.23889   0.00000  Uiso   1.00
N736   N     0.97722   0.32952   0.49859   0.00000  Uiso   1.00
