data_job_00906
_audit_creation_date              2018-12-19
_audit_creation_method            'Materials Studio'
_symmetry_space_group_name_H-M    'P1'
_symmetry_Int_Tables_number       1
_symmetry_cell_setting            triclinic
loop_
_symmetry_equiv_pos_as_xyz
  x,y,z
_cell_length_a                    21.0065
_cell_length_b                    21.0065
_cell_length_c                    20.8094
_cell_angle_alpha                 90.0000
_cell_angle_beta                  90.0000
_cell_angle_gamma                 90.0000
loop_
_atom_site_label
_atom_site_type_symbol
_atom_site_fract_x
_atom_site_fract_y
_atom_site_fract_z
_atom_site_U_iso_or_equiv
_atom_site_adp_type
_atom_site_occupancy
C1     C     0.94171   0.23310   0.62933   0.00000  Uiso   1.00
C2     C     0.91956   0.16559   0.61430   0.00000  Uiso   1.00
C3     C     0.94187   0.11044   0.64331   0.00000  Uiso   1.00
C4     C     0.91556   0.05331   0.62283   0.00000  Uiso   1.00
C5     C     0.88833   0.94876   0.60674   0.00000  Uiso   1.00
C6     C     0.96433   0.26114   0.56571   0.00000  Uiso   1.00
C7     C     0.02427   0.28634   0.55388   0.00000  Uiso   1.00
C8     C     0.03563   0.30965   0.49250   0.00000  Uiso   1.00
C9     C     0.07789   0.35349   0.40099   0.00000  Uiso   1.00
C10    C     0.88205   0.27023   0.64771   0.00000  Uiso   1.00
C11    C     0.87281   0.30308   0.70481   0.00000  Uiso   1.00
C12    C     0.81491   0.33405   0.71247   0.00000  Uiso   1.00
C13    C     0.72942   0.39200   0.74826   0.00000  Uiso   1.00
C14    C     0.85533   0.22969   0.54138   0.00000  Uiso   1.00
C15    C     0.87264   0.16374   0.56652   0.00000  Uiso   1.00
C16    C     0.84629   0.10667   0.54600   0.00000  Uiso   1.00
C17    C     0.86855   0.05145   0.57498   0.00000  Uiso   1.00
C18    C     0.91741   0.25929   0.51794   0.00000  Uiso   1.00
C19    C     0.92869   0.28257   0.45657   0.00000  Uiso   1.00
C20    C     0.98863   0.30779   0.44465   0.00000  Uiso   1.00
C21    C     0.83513   0.26837   0.59994   0.00000  Uiso   1.00
C22    C     0.77724   0.29930   0.60750   0.00000  Uiso   1.00
C23    C     0.76791   0.33219   0.66461   0.00000  Uiso   1.00
H24    H     0.97824   0.23454   0.66652   0.00000  Uiso   1.00
H25    H     0.97818   0.11190   0.68027   0.00000  Uiso   1.00
H26    H     0.06056   0.28778   0.59086   0.00000  Uiso   1.00
H27    H     0.90913   0.30451   0.74177   0.00000  Uiso   1.00
H28    H     0.95744   0.97510   0.67444   0.00000  Uiso   1.00
H29    H     0.13114   0.34597   0.48590   0.00000  Uiso   1.00
H30    H     0.81182   0.38125   0.80413   0.00000  Uiso   1.00
H31    H     0.81880   0.22825   0.50419   0.00000  Uiso   1.00
H32    H     0.80998   0.10525   0.50903   0.00000  Uiso   1.00
H33    H     0.89237   0.28113   0.41962   0.00000  Uiso   1.00
H34    H     0.74094   0.29786   0.57053   0.00000  Uiso   1.00
H35    H     0.82092   0.96971   0.53545   0.00000  Uiso   1.00
H36    H     0.99462   0.34058   0.34692   0.00000  Uiso   1.00
H37    H     0.67530   0.37586   0.66514   0.00000  Uiso   1.00
O38    O     0.88628   0.89161   0.61105   0.00000  Uiso   1.00
O39    O     0.11416   0.37818   0.36371   0.00000  Uiso   1.00
O40    O     0.69522   0.42447   0.78121   0.00000  Uiso   1.00
N41    N     0.92651   0.99071   0.64107   0.00000  Uiso   1.00
N42    N     0.08891   0.33744   0.46480   0.00000  Uiso   1.00
N43    N     0.79038   0.37044   0.76231   0.00000  Uiso   1.00
N44    N     0.85305   0.98781   0.56628   0.00000  Uiso   1.00
N45    N     0.01546   0.33454   0.39001   0.00000  Uiso   1.00
N46    N     0.71692   0.36754   0.68752   0.00000  Uiso   1.00
C47    C     0.05829   0.76690   0.62933   0.00000  Uiso   1.00
C48    C     0.08044   0.83441   0.61430   0.00000  Uiso   1.00
C49    C     0.05813   0.88956   0.64331   0.00000  Uiso   1.00
C50    C     0.08444   0.94669   0.62283   0.00000  Uiso   1.00
C51    C     0.11167   0.05124   0.60674   0.00000  Uiso   1.00
C52    C     0.03567   0.73886   0.56571   0.00000  Uiso   1.00
C53    C     0.97573   0.71366   0.55388   0.00000  Uiso   1.00
C54    C     0.96437   0.69035   0.49250   0.00000  Uiso   1.00
C55    C     0.92211   0.64651   0.40099   0.00000  Uiso   1.00
C56    C     0.11795   0.72977   0.64771   0.00000  Uiso   1.00
C57    C     0.12719   0.69692   0.70481   0.00000  Uiso   1.00
C58    C     0.18509   0.66595   0.71247   0.00000  Uiso   1.00
C59    C     0.27058   0.60800   0.74826   0.00000  Uiso   1.00
C60    C     0.14467   0.77031   0.54138   0.00000  Uiso   1.00
C61    C     0.12736   0.83626   0.56652   0.00000  Uiso   1.00
C62    C     0.15371   0.89333   0.54600   0.00000  Uiso   1.00
C63    C     0.13145   0.94855   0.57498   0.00000  Uiso   1.00
C64    C     0.08259   0.74071   0.51794   0.00000  Uiso   1.00
C65    C     0.07131   0.71743   0.45657   0.00000  Uiso   1.00
C66    C     0.01137   0.69221   0.44465   0.00000  Uiso   1.00
C67    C     0.16487   0.73163   0.59994   0.00000  Uiso   1.00
C68    C     0.22276   0.70070   0.60750   0.00000  Uiso   1.00
C69    C     0.23209   0.66781   0.66461   0.00000  Uiso   1.00
H70    H     0.02176   0.76546   0.66652   0.00000  Uiso   1.00
H71    H     0.02182   0.88810   0.68027   0.00000  Uiso   1.00
H72    H     0.93944   0.71222   0.59086   0.00000  Uiso   1.00
H73    H     0.09087   0.69549   0.74177   0.00000  Uiso   1.00
H74    H     0.04256   0.02490   0.67444   0.00000  Uiso   1.00
H75    H     0.86886   0.65403   0.48590   0.00000  Uiso   1.00
H76    H     0.18818   0.61875   0.80413   0.00000  Uiso   1.00
H77    H     0.18120   0.77175   0.50419   0.00000  Uiso   1.00
H78    H     0.19002   0.89475   0.50903   0.00000  Uiso   1.00
H79    H     0.10763   0.71887   0.41962   0.00000  Uiso   1.00
H80    H     0.25906   0.70214   0.57053   0.00000  Uiso   1.00
H81    H     0.17908   0.03029   0.53545   0.00000  Uiso   1.00
H82    H     0.00538   0.65942   0.34692   0.00000  Uiso   1.00
H83    H     0.32470   0.62414   0.66514   0.00000  Uiso   1.00
O84    O     0.11372   0.10839   0.61105   0.00000  Uiso   1.00
O85    O     0.88584   0.62182   0.36371   0.00000  Uiso   1.00
O86    O     0.30478   0.57553   0.78121   0.00000  Uiso   1.00
N87    N     0.07349   0.00929   0.64107   0.00000  Uiso   1.00
N88    N     0.91109   0.66256   0.46480   0.00000  Uiso   1.00
N89    N     0.20962   0.62956   0.76231   0.00000  Uiso   1.00
N90    N     0.14695   0.01219   0.56628   0.00000  Uiso   1.00
N91    N     0.98454   0.66546   0.39001   0.00000  Uiso   1.00
N92    N     0.28308   0.63246   0.68752   0.00000  Uiso   1.00
C93    C     0.26690   0.44171   0.62933   0.00000  Uiso   1.00
C94    C     0.33441   0.41956   0.61430   0.00000  Uiso   1.00
C95    C     0.38956   0.44187   0.64331   0.00000  Uiso   1.00
C96    C     0.44669   0.41556   0.62283   0.00000  Uiso   1.00
C97    C     0.55124   0.38833   0.60674   0.00000  Uiso   1.00
C98    C     0.23886   0.46433   0.56571   0.00000  Uiso   1.00
C99    C     0.21366   0.52427   0.55388   0.00000  Uiso   1.00
C100   C     0.19035   0.53563   0.49250   0.00000  Uiso   1.00
C101   C     0.14651   0.57789   0.40099   0.00000  Uiso   1.00
C102   C     0.22977   0.38205   0.64771   0.00000  Uiso   1.00
C103   C     0.19692   0.37281   0.70481   0.00000  Uiso   1.00
C104   C     0.16595   0.31491   0.71247   0.00000  Uiso   1.00
C105   C     0.10800   0.22942   0.74826   0.00000  Uiso   1.00
C106   C     0.27031   0.35533   0.54138   0.00000  Uiso   1.00
C107   C     0.33626   0.37264   0.56652   0.00000  Uiso   1.00
C108   C     0.39333   0.34629   0.54600   0.00000  Uiso   1.00
C109   C     0.44855   0.36855   0.57498   0.00000  Uiso   1.00
C110   C     0.24071   0.41741   0.51794   0.00000  Uiso   1.00
C111   C     0.21743   0.42869   0.45657   0.00000  Uiso   1.00
C112   C     0.19221   0.48863   0.44465   0.00000  Uiso   1.00
C113   C     0.23163   0.33513   0.59994   0.00000  Uiso   1.00
C114   C     0.20070   0.27724   0.60750   0.00000  Uiso   1.00
C115   C     0.16781   0.26791   0.66461   0.00000  Uiso   1.00
H116   H     0.26546   0.47824   0.66652   0.00000  Uiso   1.00
H117   H     0.38810   0.47818   0.68027   0.00000  Uiso   1.00
H118   H     0.21222   0.56056   0.59086   0.00000  Uiso   1.00
H119   H     0.19549   0.40913   0.74177   0.00000  Uiso   1.00
H120   H     0.52490   0.45744   0.67444   0.00000  Uiso   1.00
H121   H     0.15403   0.63114   0.48590   0.00000  Uiso   1.00
H122   H     0.11875   0.31182   0.80413   0.00000  Uiso   1.00
H123   H     0.27175   0.31880   0.50419   0.00000  Uiso   1.00
H124   H     0.39475   0.30998   0.50903   0.00000  Uiso   1.00
H125   H     0.21887   0.39237   0.41962   0.00000  Uiso   1.00
H126   H     0.20214   0.24094   0.57053   0.00000  Uiso   1.00
H127   H     0.53029   0.32092   0.53545   0.00000  Uiso   1.00
H128   H     0.15942   0.49462   0.34692   0.00000  Uiso   1.00
H129   H     0.12414   0.17530   0.66514   0.00000  Uiso   1.00
O130   O     0.60839   0.38628   0.61105   0.00000  Uiso   1.00
O131   O     0.12182   0.61416   0.36371   0.00000  Uiso   1.00
O132   O     0.07553   0.19522   0.78121   0.00000  Uiso   1.00
N133   N     0.50929   0.42651   0.64107   0.00000  Uiso   1.00
N134   N     0.16256   0.58891   0.46480   0.00000  Uiso   1.00
N135   N     0.12956   0.29038   0.76231   0.00000  Uiso   1.00
N136   N     0.51219   0.35305   0.56628   0.00000  Uiso   1.00
N137   N     0.16546   0.51546   0.39001   0.00000  Uiso   1.00
N138   N     0.13246   0.21692   0.68752   0.00000  Uiso   1.00
C139   C     0.73310   0.55829   0.62933   0.00000  Uiso   1.00
C140   C     0.66559   0.58044   0.61430   0.00000  Uiso   1.00
C141   C     0.61044   0.55813   0.64331   0.00000  Uiso   1.00
C142   C     0.55331   0.58444   0.62283   0.00000  Uiso   1.00
C143   C     0.44876   0.61167   0.60674   0.00000  Uiso   1.00
C144   C     0.76114   0.53567   0.56571   0.00000  Uiso   1.00
C145   C     0.78634   0.47573   0.55388   0.00000  Uiso   1.00
C146   C     0.80965   0.46437   0.49250   0.00000  Uiso   1.00
C147   C     0.85349   0.42211   0.40099   0.00000  Uiso   1.00
C148   C     0.77023   0.61795   0.64771   0.00000  Uiso   1.00
C149   C     0.80308   0.62719   0.70481   0.00000  Uiso   1.00
C150   C     0.83405   0.68509   0.71247   0.00000  Uiso   1.00
C151   C     0.89200   0.77058   0.74826   0.00000  Uiso   1.00
C152   C     0.72969   0.64467   0.54138   0.00000  Uiso   1.00
C153   C     0.66374   0.62736   0.56652   0.00000  Uiso   1.00
C154   C     0.60667   0.65371   0.54600   0.00000  Uiso   1.00
C155   C     0.55145   0.63145   0.57498   0.00000  Uiso   1.00
C156   C     0.75929   0.58259   0.51794   0.00000  Uiso   1.00
C157   C     0.78257   0.57131   0.45657   0.00000  Uiso   1.00
C158   C     0.80779   0.51137   0.44465   0.00000  Uiso   1.00
C159   C     0.76837   0.66487   0.59994   0.00000  Uiso   1.00
C160   C     0.79930   0.72276   0.60750   0.00000  Uiso   1.00
C161   C     0.83219   0.73209   0.66461   0.00000  Uiso   1.00
H162   H     0.73454   0.52176   0.66652   0.00000  Uiso   1.00
H163   H     0.61190   0.52182   0.68027   0.00000  Uiso   1.00
H164   H     0.78778   0.43944   0.59086   0.00000  Uiso   1.00
H165   H     0.80451   0.59087   0.74177   0.00000  Uiso   1.00
H166   H     0.47510   0.54256   0.67444   0.00000  Uiso   1.00
H167   H     0.84597   0.36886   0.48590   0.00000  Uiso   1.00
H168   H     0.88125   0.68818   0.80413   0.00000  Uiso   1.00
H169   H     0.72825   0.68120   0.50419   0.00000  Uiso   1.00
H170   H     0.60525   0.69002   0.50903   0.00000  Uiso   1.00
H171   H     0.78113   0.60763   0.41962   0.00000  Uiso   1.00
H172   H     0.79786   0.75906   0.57053   0.00000  Uiso   1.00
H173   H     0.46971   0.67908   0.53545   0.00000  Uiso   1.00
H174   H     0.84058   0.50538   0.34692   0.00000  Uiso   1.00
H175   H     0.87586   0.82470   0.66514   0.00000  Uiso   1.00
O176   O     0.39161   0.61372   0.61105   0.00000  Uiso   1.00
O177   O     0.87818   0.38584   0.36371   0.00000  Uiso   1.00
O178   O     0.92447   0.80478   0.78121   0.00000  Uiso   1.00
N179   N     0.49071   0.57349   0.64107   0.00000  Uiso   1.00
N180   N     0.83744   0.41109   0.46480   0.00000  Uiso   1.00
N181   N     0.87044   0.70962   0.76231   0.00000  Uiso   1.00
N182   N     0.48781   0.64695   0.56628   0.00000  Uiso   1.00
N183   N     0.83454   0.48454   0.39001   0.00000  Uiso   1.00
N184   N     0.86754   0.78308   0.68752   0.00000  Uiso   1.00
C185   C     0.55829   0.73310   0.87067   0.00000  Uiso   1.00
C186   C     0.58044   0.66559   0.88570   0.00000  Uiso   1.00
C187   C     0.55813   0.61044   0.85669   0.00000  Uiso   1.00
C188   C     0.58444   0.55331   0.87717   0.00000  Uiso   1.00
C189   C     0.61167   0.44876   0.89326   0.00000  Uiso   1.00
C190   C     0.53567   0.76114   0.93429   0.00000  Uiso   1.00
C191   C     0.47573   0.78634   0.94612   0.00000  Uiso   1.00
C192   C     0.46437   0.80965   0.00750   0.00000  Uiso   1.00
C193   C     0.42211   0.85349   0.09901   0.00000  Uiso   1.00
C194   C     0.61795   0.77023   0.85229   0.00000  Uiso   1.00
C195   C     0.62719   0.80308   0.79519   0.00000  Uiso   1.00
C196   C     0.68509   0.83405   0.78753   0.00000  Uiso   1.00
C197   C     0.77058   0.89200   0.75174   0.00000  Uiso   1.00
C198   C     0.64467   0.72969   0.95862   0.00000  Uiso   1.00
C199   C     0.62736   0.66374   0.93348   0.00000  Uiso   1.00
C200   C     0.65371   0.60667   0.95400   0.00000  Uiso   1.00
C201   C     0.63145   0.55145   0.92502   0.00000  Uiso   1.00
C202   C     0.58259   0.75929   0.98206   0.00000  Uiso   1.00
C203   C     0.57131   0.78257   0.04343   0.00000  Uiso   1.00
C204   C     0.51137   0.80779   0.05535   0.00000  Uiso   1.00
C205   C     0.66487   0.76837   0.90006   0.00000  Uiso   1.00
C206   C     0.72276   0.79930   0.89250   0.00000  Uiso   1.00
C207   C     0.73209   0.83219   0.83539   0.00000  Uiso   1.00
H208   H     0.52176   0.73454   0.83348   0.00000  Uiso   1.00
H209   H     0.52182   0.61190   0.81973   0.00000  Uiso   1.00
H210   H     0.43944   0.78778   0.90914   0.00000  Uiso   1.00
H211   H     0.59087   0.80451   0.75823   0.00000  Uiso   1.00
H212   H     0.54256   0.47510   0.82556   0.00000  Uiso   1.00
H213   H     0.36886   0.84597   0.01410   0.00000  Uiso   1.00
H214   H     0.68818   0.88125   0.69587   0.00000  Uiso   1.00
H215   H     0.68120   0.72825   0.99581   0.00000  Uiso   1.00
H216   H     0.69002   0.60525   0.99097   0.00000  Uiso   1.00
H217   H     0.60763   0.78113   0.08038   0.00000  Uiso   1.00
H218   H     0.75906   0.79786   0.92947   0.00000  Uiso   1.00
H219   H     0.67908   0.46971   0.96455   0.00000  Uiso   1.00
H220   H     0.50538   0.84058   0.15308   0.00000  Uiso   1.00
H221   H     0.82470   0.87586   0.83486   0.00000  Uiso   1.00
O222   O     0.61372   0.39161   0.88895   0.00000  Uiso   1.00
O223   O     0.38584   0.87818   0.13629   0.00000  Uiso   1.00
O224   O     0.80478   0.92447   0.71879   0.00000  Uiso   1.00
N225   N     0.57349   0.49071   0.85893   0.00000  Uiso   1.00
N226   N     0.41109   0.83744   0.03520   0.00000  Uiso   1.00
N227   N     0.70962   0.87044   0.73769   0.00000  Uiso   1.00
N228   N     0.64695   0.48781   0.93372   0.00000  Uiso   1.00
N229   N     0.48454   0.83454   0.10999   0.00000  Uiso   1.00
N230   N     0.78308   0.86754   0.81248   0.00000  Uiso   1.00
C231   C     0.44171   0.26690   0.87067   0.00000  Uiso   1.00
C232   C     0.41956   0.33441   0.88570   0.00000  Uiso   1.00
C233   C     0.44187   0.38956   0.85669   0.00000  Uiso   1.00
C234   C     0.41556   0.44669   0.87717   0.00000  Uiso   1.00
C235   C     0.38833   0.55124   0.89326   0.00000  Uiso   1.00
C236   C     0.46433   0.23886   0.93429   0.00000  Uiso   1.00
C237   C     0.52427   0.21366   0.94612   0.00000  Uiso   1.00
C238   C     0.53563   0.19035   0.00750   0.00000  Uiso   1.00
C239   C     0.57789   0.14651   0.09901   0.00000  Uiso   1.00
C240   C     0.38205   0.22977   0.85229   0.00000  Uiso   1.00
C241   C     0.37281   0.19692   0.79519   0.00000  Uiso   1.00
C242   C     0.31491   0.16595   0.78753   0.00000  Uiso   1.00
C243   C     0.22942   0.10800   0.75174   0.00000  Uiso   1.00
C244   C     0.35533   0.27031   0.95862   0.00000  Uiso   1.00
C245   C     0.37264   0.33626   0.93348   0.00000  Uiso   1.00
C246   C     0.34629   0.39333   0.95400   0.00000  Uiso   1.00
C247   C     0.36855   0.44855   0.92502   0.00000  Uiso   1.00
C248   C     0.41741   0.24071   0.98206   0.00000  Uiso   1.00
C249   C     0.42869   0.21743   0.04343   0.00000  Uiso   1.00
C250   C     0.48863   0.19221   0.05535   0.00000  Uiso   1.00
C251   C     0.33513   0.23163   0.90006   0.00000  Uiso   1.00
C252   C     0.27724   0.20070   0.89250   0.00000  Uiso   1.00
C253   C     0.26791   0.16781   0.83539   0.00000  Uiso   1.00
H254   H     0.47824   0.26546   0.83348   0.00000  Uiso   1.00
H255   H     0.47818   0.38810   0.81973   0.00000  Uiso   1.00
H256   H     0.56056   0.21222   0.90914   0.00000  Uiso   1.00
H257   H     0.40913   0.19549   0.75823   0.00000  Uiso   1.00
H258   H     0.45744   0.52490   0.82556   0.00000  Uiso   1.00
H259   H     0.63114   0.15403   0.01410   0.00000  Uiso   1.00
H260   H     0.31182   0.11875   0.69587   0.00000  Uiso   1.00
H261   H     0.31880   0.27175   0.99581   0.00000  Uiso   1.00
H262   H     0.30998   0.39475   0.99097   0.00000  Uiso   1.00
H263   H     0.39237   0.21887   0.08038   0.00000  Uiso   1.00
H264   H     0.24094   0.20214   0.92947   0.00000  Uiso   1.00
H265   H     0.32092   0.53029   0.96455   0.00000  Uiso   1.00
H266   H     0.49462   0.15942   0.15308   0.00000  Uiso   1.00
H267   H     0.17530   0.12414   0.83486   0.00000  Uiso   1.00
O268   O     0.38628   0.60839   0.88895   0.00000  Uiso   1.00
O269   O     0.61416   0.12182   0.13629   0.00000  Uiso   1.00
O270   O     0.19522   0.07553   0.71879   0.00000  Uiso   1.00
N271   N     0.42651   0.50929   0.85893   0.00000  Uiso   1.00
N272   N     0.58891   0.16256   0.03520   0.00000  Uiso   1.00
N273   N     0.29038   0.12956   0.73769   0.00000  Uiso   1.00
N274   N     0.35305   0.51219   0.93372   0.00000  Uiso   1.00
N275   N     0.51546   0.16546   0.10999   0.00000  Uiso   1.00
N276   N     0.21692   0.13246   0.81248   0.00000  Uiso   1.00
C277   C     0.23310   0.94171   0.87067   0.00000  Uiso   1.00
C278   C     0.16559   0.91956   0.88570   0.00000  Uiso   1.00
C279   C     0.11044   0.94187   0.85669   0.00000  Uiso   1.00
C280   C     0.05331   0.91556   0.87717   0.00000  Uiso   1.00
C281   C     0.94876   0.88833   0.89326   0.00000  Uiso   1.00
C282   C     0.26114   0.96433   0.93429   0.00000  Uiso   1.00
C283   C     0.28634   0.02427   0.94612   0.00000  Uiso   1.00
C284   C     0.30965   0.03563   0.00750   0.00000  Uiso   1.00
C285   C     0.35349   0.07789   0.09901   0.00000  Uiso   1.00
C286   C     0.27023   0.88205   0.85229   0.00000  Uiso   1.00
C287   C     0.30308   0.87281   0.79519   0.00000  Uiso   1.00
C288   C     0.33405   0.81491   0.78753   0.00000  Uiso   1.00
C289   C     0.39200   0.72942   0.75174   0.00000  Uiso   1.00
C290   C     0.22969   0.85533   0.95862   0.00000  Uiso   1.00
C291   C     0.16374   0.87264   0.93348   0.00000  Uiso   1.00
C292   C     0.10667   0.84629   0.95400   0.00000  Uiso   1.00
C293   C     0.05145   0.86855   0.92502   0.00000  Uiso   1.00
C294   C     0.25929   0.91741   0.98206   0.00000  Uiso   1.00
C295   C     0.28257   0.92869   0.04343   0.00000  Uiso   1.00
C296   C     0.30779   0.98863   0.05535   0.00000  Uiso   1.00
C297   C     0.26837   0.83513   0.90006   0.00000  Uiso   1.00
C298   C     0.29930   0.77724   0.89250   0.00000  Uiso   1.00
C299   C     0.33219   0.76791   0.83539   0.00000  Uiso   1.00
H300   H     0.23454   0.97824   0.83348   0.00000  Uiso   1.00
H301   H     0.11190   0.97818   0.81973   0.00000  Uiso   1.00
H302   H     0.28778   0.06056   0.90914   0.00000  Uiso   1.00
H303   H     0.30451   0.90913   0.75823   0.00000  Uiso   1.00
H304   H     0.97510   0.95744   0.82556   0.00000  Uiso   1.00
H305   H     0.34597   0.13114   0.01410   0.00000  Uiso   1.00
H306   H     0.38125   0.81182   0.69587   0.00000  Uiso   1.00
H307   H     0.22825   0.81880   0.99581   0.00000  Uiso   1.00
H308   H     0.10525   0.80998   0.99097   0.00000  Uiso   1.00
H309   H     0.28113   0.89237   0.08038   0.00000  Uiso   1.00
H310   H     0.29786   0.74094   0.92947   0.00000  Uiso   1.00
H311   H     0.96971   0.82092   0.96455   0.00000  Uiso   1.00
H312   H     0.34058   0.99462   0.15308   0.00000  Uiso   1.00
H313   H     0.37586   0.67530   0.83486   0.00000  Uiso   1.00
O314   O     0.89161   0.88628   0.88895   0.00000  Uiso   1.00
O315   O     0.37818   0.11416   0.13629   0.00000  Uiso   1.00
O316   O     0.42447   0.69522   0.71879   0.00000  Uiso   1.00
N317   N     0.99071   0.92651   0.85893   0.00000  Uiso   1.00
N318   N     0.33744   0.08891   0.03520   0.00000  Uiso   1.00
N319   N     0.37044   0.79038   0.73769   0.00000  Uiso   1.00
N320   N     0.98781   0.85305   0.93372   0.00000  Uiso   1.00
N321   N     0.33454   0.01546   0.10999   0.00000  Uiso   1.00
N322   N     0.36754   0.71692   0.81248   0.00000  Uiso   1.00
C323   C     0.76690   0.05829   0.87067   0.00000  Uiso   1.00
C324   C     0.83441   0.08044   0.88570   0.00000  Uiso   1.00
C325   C     0.88956   0.05813   0.85669   0.00000  Uiso   1.00
C326   C     0.94669   0.08444   0.87717   0.00000  Uiso   1.00
C327   C     0.05124   0.11167   0.89326   0.00000  Uiso   1.00
C328   C     0.73886   0.03567   0.93429   0.00000  Uiso   1.00
C329   C     0.71366   0.97573   0.94612   0.00000  Uiso   1.00
C330   C     0.69035   0.96437   0.00750   0.00000  Uiso   1.00
C331   C     0.64651   0.92211   0.09901   0.00000  Uiso   1.00
C332   C     0.72977   0.11795   0.85229   0.00000  Uiso   1.00
C333   C     0.69692   0.12719   0.79519   0.00000  Uiso   1.00
C334   C     0.66595   0.18509   0.78753   0.00000  Uiso   1.00
C335   C     0.60800   0.27058   0.75174   0.00000  Uiso   1.00
C336   C     0.77031   0.14467   0.95862   0.00000  Uiso   1.00
C337   C     0.83626   0.12736   0.93348   0.00000  Uiso   1.00
C338   C     0.89333   0.15371   0.95400   0.00000  Uiso   1.00
C339   C     0.94855   0.13145   0.92502   0.00000  Uiso   1.00
C340   C     0.74071   0.08259   0.98206   0.00000  Uiso   1.00
C341   C     0.71743   0.07131   0.04343   0.00000  Uiso   1.00
C342   C     0.69221   0.01137   0.05535   0.00000  Uiso   1.00
C343   C     0.73163   0.16487   0.90006   0.00000  Uiso   1.00
C344   C     0.70070   0.22276   0.89250   0.00000  Uiso   1.00
C345   C     0.66781   0.23209   0.83539   0.00000  Uiso   1.00
H346   H     0.76546   0.02176   0.83348   0.00000  Uiso   1.00
H347   H     0.88810   0.02182   0.81973   0.00000  Uiso   1.00
H348   H     0.71222   0.93944   0.90914   0.00000  Uiso   1.00
H349   H     0.69549   0.09087   0.75823   0.00000  Uiso   1.00
H350   H     0.02490   0.04256   0.82556   0.00000  Uiso   1.00
H351   H     0.65403   0.86886   0.01410   0.00000  Uiso   1.00
H352   H     0.61875   0.18818   0.69587   0.00000  Uiso   1.00
H353   H     0.77175   0.18120   0.99581   0.00000  Uiso   1.00
H354   H     0.89475   0.19002   0.99097   0.00000  Uiso   1.00
H355   H     0.71887   0.10763   0.08038   0.00000  Uiso   1.00
H356   H     0.70214   0.25906   0.92947   0.00000  Uiso   1.00
H357   H     0.03029   0.17908   0.96455   0.00000  Uiso   1.00
H358   H     0.65942   0.00538   0.15308   0.00000  Uiso   1.00
H359   H     0.62414   0.32470   0.83486   0.00000  Uiso   1.00
O360   O     0.10839   0.11372   0.88895   0.00000  Uiso   1.00
O361   O     0.62182   0.88584   0.13629   0.00000  Uiso   1.00
O362   O     0.57553   0.30478   0.71879   0.00000  Uiso   1.00
N363   N     0.00929   0.07349   0.85893   0.00000  Uiso   1.00
N364   N     0.66256   0.91109   0.03520   0.00000  Uiso   1.00
N365   N     0.62956   0.20962   0.73769   0.00000  Uiso   1.00
N366   N     0.01219   0.14695   0.93372   0.00000  Uiso   1.00
N367   N     0.66546   0.98454   0.10999   0.00000  Uiso   1.00
N368   N     0.63246   0.28308   0.81248   0.00000  Uiso   1.00
C369   C     0.55829   0.26690   0.37067   0.00000  Uiso   1.00
C370   C     0.58044   0.33441   0.38570   0.00000  Uiso   1.00
C371   C     0.55813   0.38956   0.35669   0.00000  Uiso   1.00
C372   C     0.58444   0.44669   0.37717   0.00000  Uiso   1.00
C373   C     0.61167   0.55124   0.39326   0.00000  Uiso   1.00
C374   C     0.53567   0.23886   0.43429   0.00000  Uiso   1.00
C375   C     0.47573   0.21366   0.44612   0.00000  Uiso   1.00
C376   C     0.46437   0.19035   0.50750   0.00000  Uiso   1.00
C377   C     0.42211   0.14651   0.59901   0.00000  Uiso   1.00
C378   C     0.61795   0.22977   0.35229   0.00000  Uiso   1.00
C379   C     0.62719   0.19692   0.29519   0.00000  Uiso   1.00
C380   C     0.68509   0.16595   0.28753   0.00000  Uiso   1.00
C381   C     0.77058   0.10800   0.25174   0.00000  Uiso   1.00
C382   C     0.64467   0.27031   0.45862   0.00000  Uiso   1.00
C383   C     0.62736   0.33626   0.43348   0.00000  Uiso   1.00
C384   C     0.65371   0.39333   0.45400   0.00000  Uiso   1.00
C385   C     0.63145   0.44855   0.42502   0.00000  Uiso   1.00
C386   C     0.58259   0.24071   0.48206   0.00000  Uiso   1.00
C387   C     0.57131   0.21743   0.54343   0.00000  Uiso   1.00
C388   C     0.51137   0.19221   0.55535   0.00000  Uiso   1.00
C389   C     0.66487   0.23163   0.40006   0.00000  Uiso   1.00
C390   C     0.72276   0.20070   0.39250   0.00000  Uiso   1.00
C391   C     0.73209   0.16781   0.33539   0.00000  Uiso   1.00
H392   H     0.52176   0.26546   0.33348   0.00000  Uiso   1.00
H393   H     0.52182   0.38810   0.31973   0.00000  Uiso   1.00
H394   H     0.43944   0.21222   0.40914   0.00000  Uiso   1.00
H395   H     0.59087   0.19549   0.25823   0.00000  Uiso   1.00
H396   H     0.54256   0.52490   0.32556   0.00000  Uiso   1.00
H397   H     0.36886   0.15403   0.51410   0.00000  Uiso   1.00
H398   H     0.68818   0.11875   0.19587   0.00000  Uiso   1.00
H399   H     0.68120   0.27175   0.49581   0.00000  Uiso   1.00
H400   H     0.69002   0.39475   0.49097   0.00000  Uiso   1.00
H401   H     0.60763   0.21887   0.58038   0.00000  Uiso   1.00
H402   H     0.75906   0.20214   0.42947   0.00000  Uiso   1.00
H403   H     0.67908   0.53029   0.46455   0.00000  Uiso   1.00
H404   H     0.50538   0.15942   0.65308   0.00000  Uiso   1.00
H405   H     0.82470   0.12414   0.33486   0.00000  Uiso   1.00
O406   O     0.61372   0.60839   0.38895   0.00000  Uiso   1.00
O407   O     0.38584   0.12182   0.63629   0.00000  Uiso   1.00
O408   O     0.80478   0.07553   0.21879   0.00000  Uiso   1.00
N409   N     0.57349   0.50929   0.35893   0.00000  Uiso   1.00
N410   N     0.41109   0.16256   0.53520   0.00000  Uiso   1.00
N411   N     0.70962   0.12956   0.23769   0.00000  Uiso   1.00
N412   N     0.64695   0.51219   0.43372   0.00000  Uiso   1.00
N413   N     0.48454   0.16546   0.60999   0.00000  Uiso   1.00
N414   N     0.78308   0.13246   0.31248   0.00000  Uiso   1.00
C415   C     0.44171   0.73310   0.37067   0.00000  Uiso   1.00
C416   C     0.41956   0.66559   0.38570   0.00000  Uiso   1.00
C417   C     0.44187   0.61044   0.35669   0.00000  Uiso   1.00
C418   C     0.41556   0.55331   0.37717   0.00000  Uiso   1.00
C419   C     0.38833   0.44876   0.39326   0.00000  Uiso   1.00
C420   C     0.46433   0.76114   0.43429   0.00000  Uiso   1.00
C421   C     0.52427   0.78634   0.44612   0.00000  Uiso   1.00
C422   C     0.53563   0.80965   0.50750   0.00000  Uiso   1.00
C423   C     0.57789   0.85349   0.59901   0.00000  Uiso   1.00
C424   C     0.38205   0.77023   0.35229   0.00000  Uiso   1.00
C425   C     0.37281   0.80308   0.29519   0.00000  Uiso   1.00
C426   C     0.31491   0.83405   0.28753   0.00000  Uiso   1.00
C427   C     0.22942   0.89200   0.25174   0.00000  Uiso   1.00
C428   C     0.35533   0.72969   0.45862   0.00000  Uiso   1.00
C429   C     0.37264   0.66374   0.43348   0.00000  Uiso   1.00
C430   C     0.34629   0.60667   0.45400   0.00000  Uiso   1.00
C431   C     0.36855   0.55145   0.42502   0.00000  Uiso   1.00
C432   C     0.41741   0.75929   0.48206   0.00000  Uiso   1.00
C433   C     0.42869   0.78257   0.54343   0.00000  Uiso   1.00
C434   C     0.48863   0.80779   0.55535   0.00000  Uiso   1.00
C435   C     0.33513   0.76837   0.40006   0.00000  Uiso   1.00
C436   C     0.27724   0.79930   0.39250   0.00000  Uiso   1.00
C437   C     0.26791   0.83219   0.33539   0.00000  Uiso   1.00
H438   H     0.47824   0.73454   0.33348   0.00000  Uiso   1.00
H439   H     0.47818   0.61190   0.31973   0.00000  Uiso   1.00
H440   H     0.56056   0.78778   0.40914   0.00000  Uiso   1.00
H441   H     0.40913   0.80451   0.25823   0.00000  Uiso   1.00
H442   H     0.45744   0.47510   0.32556   0.00000  Uiso   1.00
H443   H     0.63114   0.84597   0.51410   0.00000  Uiso   1.00
H444   H     0.31182   0.88125   0.19587   0.00000  Uiso   1.00
H445   H     0.31880   0.72825   0.49581   0.00000  Uiso   1.00
H446   H     0.30998   0.60525   0.49097   0.00000  Uiso   1.00
H447   H     0.39237   0.78113   0.58038   0.00000  Uiso   1.00
H448   H     0.24094   0.79786   0.42947   0.00000  Uiso   1.00
H449   H     0.32092   0.46971   0.46455   0.00000  Uiso   1.00
H450   H     0.49462   0.84058   0.65308   0.00000  Uiso   1.00
H451   H     0.17530   0.87586   0.33486   0.00000  Uiso   1.00
O452   O     0.38628   0.39161   0.38895   0.00000  Uiso   1.00
O453   O     0.61416   0.87818   0.63629   0.00000  Uiso   1.00
O454   O     0.19522   0.92447   0.21879   0.00000  Uiso   1.00
N455   N     0.42651   0.49071   0.35893   0.00000  Uiso   1.00
N456   N     0.58891   0.83744   0.53520   0.00000  Uiso   1.00
N457   N     0.29038   0.87044   0.23769   0.00000  Uiso   1.00
N458   N     0.35305   0.48781   0.43372   0.00000  Uiso   1.00
N459   N     0.51546   0.83454   0.60999   0.00000  Uiso   1.00
N460   N     0.21692   0.86754   0.31248   0.00000  Uiso   1.00
C461   C     0.23310   0.05829   0.37067   0.00000  Uiso   1.00
C462   C     0.16559   0.08044   0.38570   0.00000  Uiso   1.00
C463   C     0.11044   0.05813   0.35669   0.00000  Uiso   1.00
C464   C     0.05331   0.08444   0.37717   0.00000  Uiso   1.00
C465   C     0.94876   0.11167   0.39326   0.00000  Uiso   1.00
C466   C     0.26114   0.03567   0.43429   0.00000  Uiso   1.00
C467   C     0.28634   0.97573   0.44612   0.00000  Uiso   1.00
C468   C     0.30965   0.96437   0.50750   0.00000  Uiso   1.00
C469   C     0.35349   0.92211   0.59901   0.00000  Uiso   1.00
C470   C     0.27023   0.11795   0.35229   0.00000  Uiso   1.00
C471   C     0.30308   0.12719   0.29519   0.00000  Uiso   1.00
C472   C     0.33405   0.18509   0.28753   0.00000  Uiso   1.00
C473   C     0.39200   0.27058   0.25174   0.00000  Uiso   1.00
C474   C     0.22969   0.14467   0.45862   0.00000  Uiso   1.00
C475   C     0.16374   0.12736   0.43348   0.00000  Uiso   1.00
C476   C     0.10667   0.15371   0.45400   0.00000  Uiso   1.00
C477   C     0.05145   0.13145   0.42502   0.00000  Uiso   1.00
C478   C     0.25929   0.08259   0.48206   0.00000  Uiso   1.00
C479   C     0.28257   0.07131   0.54343   0.00000  Uiso   1.00
C480   C     0.30779   0.01137   0.55535   0.00000  Uiso   1.00
C481   C     0.26837   0.16487   0.40006   0.00000  Uiso   1.00
C482   C     0.29930   0.22276   0.39250   0.00000  Uiso   1.00
C483   C     0.33219   0.23209   0.33539   0.00000  Uiso   1.00
H484   H     0.23454   0.02176   0.33348   0.00000  Uiso   1.00
H485   H     0.11190   0.02182   0.31973   0.00000  Uiso   1.00
H486   H     0.28778   0.93944   0.40914   0.00000  Uiso   1.00
H487   H     0.30451   0.09087   0.25823   0.00000  Uiso   1.00
H488   H     0.97510   0.04256   0.32556   0.00000  Uiso   1.00
H489   H     0.34597   0.86886   0.51410   0.00000  Uiso   1.00
H490   H     0.38125   0.18818   0.19587   0.00000  Uiso   1.00
H491   H     0.22825   0.18120   0.49581   0.00000  Uiso   1.00
H492   H     0.10525   0.19002   0.49097   0.00000  Uiso   1.00
H493   H     0.28113   0.10763   0.58038   0.00000  Uiso   1.00
H494   H     0.29786   0.25906   0.42947   0.00000  Uiso   1.00
H495   H     0.96971   0.17908   0.46455   0.00000  Uiso   1.00
H496   H     0.34058   0.00538   0.65308   0.00000  Uiso   1.00
H497   H     0.37586   0.32470   0.33486   0.00000  Uiso   1.00
O498   O     0.89161   0.11372   0.38895   0.00000  Uiso   1.00
O499   O     0.37818   0.88584   0.63629   0.00000  Uiso   1.00
O500   O     0.42447   0.30478   0.21879   0.00000  Uiso   1.00
N501   N     0.99071   0.07349   0.35893   0.00000  Uiso   1.00
N502   N     0.33744   0.91109   0.53520   0.00000  Uiso   1.00
N503   N     0.37044   0.20962   0.23769   0.00000  Uiso   1.00
N504   N     0.98781   0.14695   0.43372   0.00000  Uiso   1.00
N505   N     0.33454   0.98454   0.60999   0.00000  Uiso   1.00
N506   N     0.36754   0.28308   0.31248   0.00000  Uiso   1.00
C507   C     0.76690   0.94171   0.37067   0.00000  Uiso   1.00
C508   C     0.83441   0.91956   0.38570   0.00000  Uiso   1.00
C509   C     0.88956   0.94187   0.35669   0.00000  Uiso   1.00
C510   C     0.94669   0.91556   0.37717   0.00000  Uiso   1.00
C511   C     0.05124   0.88833   0.39326   0.00000  Uiso   1.00
C512   C     0.73886   0.96433   0.43429   0.00000  Uiso   1.00
C513   C     0.71366   0.02427   0.44612   0.00000  Uiso   1.00
C514   C     0.69035   0.03563   0.50750   0.00000  Uiso   1.00
C515   C     0.64651   0.07789   0.59901   0.00000  Uiso   1.00
C516   C     0.72977   0.88205   0.35229   0.00000  Uiso   1.00
C517   C     0.69692   0.87281   0.29519   0.00000  Uiso   1.00
C518   C     0.66595   0.81491   0.28753   0.00000  Uiso   1.00
C519   C     0.60800   0.72942   0.25174   0.00000  Uiso   1.00
C520   C     0.77031   0.85533   0.45862   0.00000  Uiso   1.00
C521   C     0.83626   0.87264   0.43348   0.00000  Uiso   1.00
C522   C     0.89333   0.84629   0.45400   0.00000  Uiso   1.00
C523   C     0.94855   0.86855   0.42502   0.00000  Uiso   1.00
C524   C     0.74071   0.91741   0.48206   0.00000  Uiso   1.00
C525   C     0.71743   0.92869   0.54343   0.00000  Uiso   1.00
C526   C     0.69221   0.98863   0.55535   0.00000  Uiso   1.00
C527   C     0.73163   0.83513   0.40006   0.00000  Uiso   1.00
C528   C     0.70070   0.77724   0.39250   0.00000  Uiso   1.00
C529   C     0.66781   0.76791   0.33539   0.00000  Uiso   1.00
H530   H     0.76546   0.97824   0.33348   0.00000  Uiso   1.00
H531   H     0.88810   0.97818   0.31973   0.00000  Uiso   1.00
H532   H     0.71222   0.06056   0.40914   0.00000  Uiso   1.00
H533   H     0.69549   0.90913   0.25823   0.00000  Uiso   1.00
H534   H     0.02490   0.95744   0.32556   0.00000  Uiso   1.00
H535   H     0.65403   0.13114   0.51410   0.00000  Uiso   1.00
H536   H     0.61875   0.81182   0.19587   0.00000  Uiso   1.00
H537   H     0.77175   0.81880   0.49581   0.00000  Uiso   1.00
H538   H     0.89475   0.80998   0.49097   0.00000  Uiso   1.00
H539   H     0.71887   0.89237   0.58038   0.00000  Uiso   1.00
H540   H     0.70214   0.74094   0.42947   0.00000  Uiso   1.00
H541   H     0.03029   0.82092   0.46455   0.00000  Uiso   1.00
H542   H     0.65942   0.99462   0.65308   0.00000  Uiso   1.00
H543   H     0.62414   0.67530   0.33486   0.00000  Uiso   1.00
O544   O     0.10839   0.88628   0.38895   0.00000  Uiso   1.00
O545   O     0.62182   0.11416   0.63629   0.00000  Uiso   1.00
O546   O     0.57553   0.69522   0.21879   0.00000  Uiso   1.00
N547   N     0.00929   0.92651   0.35893   0.00000  Uiso   1.00
N548   N     0.66256   0.08891   0.53520   0.00000  Uiso   1.00
N549   N     0.62956   0.79038   0.23769   0.00000  Uiso   1.00
N550   N     0.01219   0.85305   0.43372   0.00000  Uiso   1.00
N551   N     0.66546   0.01546   0.60999   0.00000  Uiso   1.00
N552   N     0.63246   0.71692   0.31248   0.00000  Uiso   1.00
C553   C     0.94171   0.76690   0.12933   0.00000  Uiso   1.00
C554   C     0.91956   0.83441   0.11430   0.00000  Uiso   1.00
C555   C     0.94187   0.88956   0.14331   0.00000  Uiso   1.00
C556   C     0.91556   0.94669   0.12283   0.00000  Uiso   1.00
C557   C     0.88833   0.05124   0.10674   0.00000  Uiso   1.00
C558   C     0.96433   0.73886   0.06571   0.00000  Uiso   1.00
C559   C     0.02427   0.71366   0.05388   0.00000  Uiso   1.00
C560   C     0.03563   0.69035   0.99250   0.00000  Uiso   1.00
C561   C     0.07789   0.64651   0.90099   0.00000  Uiso   1.00
C562   C     0.88205   0.72977   0.14771   0.00000  Uiso   1.00
C563   C     0.87281   0.69692   0.20481   0.00000  Uiso   1.00
C564   C     0.81491   0.66595   0.21247   0.00000  Uiso   1.00
C565   C     0.72942   0.60800   0.24826   0.00000  Uiso   1.00
C566   C     0.85533   0.77031   0.04138   0.00000  Uiso   1.00
C567   C     0.87264   0.83626   0.06652   0.00000  Uiso   1.00
C568   C     0.84629   0.89333   0.04600   0.00000  Uiso   1.00
C569   C     0.86855   0.94855   0.07498   0.00000  Uiso   1.00
C570   C     0.91741   0.74071   0.01794   0.00000  Uiso   1.00
C571   C     0.92869   0.71743   0.95657   0.00000  Uiso   1.00
C572   C     0.98863   0.69221   0.94465   0.00000  Uiso   1.00
C573   C     0.83513   0.73163   0.09994   0.00000  Uiso   1.00
C574   C     0.77724   0.70070   0.10750   0.00000  Uiso   1.00
C575   C     0.76791   0.66781   0.16461   0.00000  Uiso   1.00
H576   H     0.97824   0.76546   0.16652   0.00000  Uiso   1.00
H577   H     0.97818   0.88810   0.18027   0.00000  Uiso   1.00
H578   H     0.06056   0.71222   0.09086   0.00000  Uiso   1.00
H579   H     0.90913   0.69549   0.24177   0.00000  Uiso   1.00
H580   H     0.95744   0.02490   0.17444   0.00000  Uiso   1.00
H581   H     0.13114   0.65403   0.98590   0.00000  Uiso   1.00
H582   H     0.81182   0.61875   0.30413   0.00000  Uiso   1.00
H583   H     0.81880   0.77175   0.00419   0.00000  Uiso   1.00
H584   H     0.80998   0.89475   0.00903   0.00000  Uiso   1.00
H585   H     0.89237   0.71887   0.91962   0.00000  Uiso   1.00
H586   H     0.74094   0.70214   0.07053   0.00000  Uiso   1.00
H587   H     0.82092   0.03029   0.03545   0.00000  Uiso   1.00
H588   H     0.99462   0.65942   0.84692   0.00000  Uiso   1.00
H589   H     0.67530   0.62414   0.16514   0.00000  Uiso   1.00
O590   O     0.88628   0.10839   0.11105   0.00000  Uiso   1.00
O591   O     0.11416   0.62182   0.86371   0.00000  Uiso   1.00
O592   O     0.69522   0.57553   0.28121   0.00000  Uiso   1.00
N593   N     0.92651   0.00929   0.14107   0.00000  Uiso   1.00
N594   N     0.08891   0.66256   0.96480   0.00000  Uiso   1.00
N595   N     0.79038   0.62956   0.26231   0.00000  Uiso   1.00
N596   N     0.85305   0.01219   0.06628   0.00000  Uiso   1.00
N597   N     0.01546   0.66546   0.89001   0.00000  Uiso   1.00
N598   N     0.71692   0.63246   0.18752   0.00000  Uiso   1.00
C599   C     0.05829   0.23310   0.12933   0.00000  Uiso   1.00
C600   C     0.08044   0.16559   0.11430   0.00000  Uiso   1.00
C601   C     0.05813   0.11044   0.14331   0.00000  Uiso   1.00
C602   C     0.08444   0.05331   0.12283   0.00000  Uiso   1.00
C603   C     0.11167   0.94876   0.10674   0.00000  Uiso   1.00
C604   C     0.03567   0.26114   0.06571   0.00000  Uiso   1.00
C605   C     0.97573   0.28634   0.05388   0.00000  Uiso   1.00
C606   C     0.96437   0.30965   0.99250   0.00000  Uiso   1.00
C607   C     0.92211   0.35349   0.90099   0.00000  Uiso   1.00
C608   C     0.11795   0.27023   0.14771   0.00000  Uiso   1.00
C609   C     0.12719   0.30308   0.20481   0.00000  Uiso   1.00
C610   C     0.18509   0.33405   0.21247   0.00000  Uiso   1.00
C611   C     0.27058   0.39200   0.24826   0.00000  Uiso   1.00
C612   C     0.14467   0.22969   0.04138   0.00000  Uiso   1.00
C613   C     0.12736   0.16374   0.06652   0.00000  Uiso   1.00
C614   C     0.15371   0.10667   0.04600   0.00000  Uiso   1.00
C615   C     0.13145   0.05145   0.07498   0.00000  Uiso   1.00
C616   C     0.08259   0.25929   0.01794   0.00000  Uiso   1.00
C617   C     0.07131   0.28257   0.95657   0.00000  Uiso   1.00
C618   C     0.01137   0.30779   0.94465   0.00000  Uiso   1.00
C619   C     0.16487   0.26837   0.09994   0.00000  Uiso   1.00
C620   C     0.22276   0.29930   0.10750   0.00000  Uiso   1.00
C621   C     0.23209   0.33219   0.16461   0.00000  Uiso   1.00
H622   H     0.02176   0.23454   0.16652   0.00000  Uiso   1.00
H623   H     0.02182   0.11190   0.18027   0.00000  Uiso   1.00
H624   H     0.93944   0.28778   0.09086   0.00000  Uiso   1.00
H625   H     0.09087   0.30451   0.24177   0.00000  Uiso   1.00
H626   H     0.04256   0.97510   0.17444   0.00000  Uiso   1.00
H627   H     0.86886   0.34597   0.98590   0.00000  Uiso   1.00
H628   H     0.18818   0.38125   0.30413   0.00000  Uiso   1.00
H629   H     0.18120   0.22825   0.00419   0.00000  Uiso   1.00
H630   H     0.19002   0.10525   0.00903   0.00000  Uiso   1.00
H631   H     0.10763   0.28113   0.91962   0.00000  Uiso   1.00
H632   H     0.25906   0.29786   0.07053   0.00000  Uiso   1.00
H633   H     0.17908   0.96971   0.03545   0.00000  Uiso   1.00
H634   H     0.00538   0.34058   0.84692   0.00000  Uiso   1.00
H635   H     0.32470   0.37586   0.16514   0.00000  Uiso   1.00
O636   O     0.11372   0.89161   0.11105   0.00000  Uiso   1.00
O637   O     0.88584   0.37818   0.86371   0.00000  Uiso   1.00
O638   O     0.30478   0.42447   0.28121   0.00000  Uiso   1.00
N639   N     0.07349   0.99071   0.14107   0.00000  Uiso   1.00
N640   N     0.91109   0.33744   0.96480   0.00000  Uiso   1.00
N641   N     0.20962   0.37044   0.26231   0.00000  Uiso   1.00
N642   N     0.14695   0.98781   0.06628   0.00000  Uiso   1.00
N643   N     0.98454   0.33454   0.89001   0.00000  Uiso   1.00
N644   N     0.28308   0.36754   0.18752   0.00000  Uiso   1.00
C645   C     0.26690   0.55829   0.12933   0.00000  Uiso   1.00
C646   C     0.33441   0.58044   0.11430   0.00000  Uiso   1.00
C647   C     0.38956   0.55813   0.14331   0.00000  Uiso   1.00
C648   C     0.44669   0.58444   0.12283   0.00000  Uiso   1.00
C649   C     0.55124   0.61167   0.10674   0.00000  Uiso   1.00
C650   C     0.23886   0.53567   0.06571   0.00000  Uiso   1.00
C651   C     0.21366   0.47573   0.05388   0.00000  Uiso   1.00
C652   C     0.19035   0.46437   0.99250   0.00000  Uiso   1.00
C653   C     0.14651   0.42211   0.90099   0.00000  Uiso   1.00
C654   C     0.22977   0.61795   0.14771   0.00000  Uiso   1.00
C655   C     0.19692   0.62719   0.20481   0.00000  Uiso   1.00
C656   C     0.16595   0.68509   0.21247   0.00000  Uiso   1.00
C657   C     0.10800   0.77058   0.24826   0.00000  Uiso   1.00
C658   C     0.27031   0.64467   0.04138   0.00000  Uiso   1.00
C659   C     0.33626   0.62736   0.06652   0.00000  Uiso   1.00
C660   C     0.39333   0.65371   0.04600   0.00000  Uiso   1.00
C661   C     0.44855   0.63145   0.07498   0.00000  Uiso   1.00
C662   C     0.24071   0.58259   0.01794   0.00000  Uiso   1.00
C663   C     0.21743   0.57131   0.95657   0.00000  Uiso   1.00
C664   C     0.19221   0.51137   0.94465   0.00000  Uiso   1.00
C665   C     0.23163   0.66487   0.09994   0.00000  Uiso   1.00
C666   C     0.20070   0.72276   0.10750   0.00000  Uiso   1.00
C667   C     0.16781   0.73209   0.16461   0.00000  Uiso   1.00
H668   H     0.26546   0.52176   0.16652   0.00000  Uiso   1.00
H669   H     0.38810   0.52182   0.18027   0.00000  Uiso   1.00
H670   H     0.21222   0.43944   0.09086   0.00000  Uiso   1.00
H671   H     0.19549   0.59087   0.24177   0.00000  Uiso   1.00
H672   H     0.52490   0.54256   0.17444   0.00000  Uiso   1.00
H673   H     0.15403   0.36886   0.98590   0.00000  Uiso   1.00
H674   H     0.11875   0.68818   0.30413   0.00000  Uiso   1.00
H675   H     0.27175   0.68120   0.00419   0.00000  Uiso   1.00
H676   H     0.39475   0.69002   0.00903   0.00000  Uiso   1.00
H677   H     0.21887   0.60763   0.91962   0.00000  Uiso   1.00
H678   H     0.20214   0.75906   0.07053   0.00000  Uiso   1.00
H679   H     0.53029   0.67908   0.03545   0.00000  Uiso   1.00
H680   H     0.15942   0.50538   0.84692   0.00000  Uiso   1.00
H681   H     0.12414   0.82470   0.16514   0.00000  Uiso   1.00
O682   O     0.60839   0.61372   0.11105   0.00000  Uiso   1.00
O683   O     0.12182   0.38584   0.86371   0.00000  Uiso   1.00
O684   O     0.07553   0.80478   0.28121   0.00000  Uiso   1.00
N685   N     0.50929   0.57349   0.14107   0.00000  Uiso   1.00
N686   N     0.16256   0.41109   0.96480   0.00000  Uiso   1.00
N687   N     0.12956   0.70962   0.26231   0.00000  Uiso   1.00
N688   N     0.51219   0.64695   0.06628   0.00000  Uiso   1.00
N689   N     0.16546   0.48454   0.89001   0.00000  Uiso   1.00
N690   N     0.13246   0.78308   0.18752   0.00000  Uiso   1.00
C691   C     0.73310   0.44171   0.12933   0.00000  Uiso   1.00
C692   C     0.66559   0.41956   0.11430   0.00000  Uiso   1.00
C693   C     0.61044   0.44187   0.14331   0.00000  Uiso   1.00
C694   C     0.55331   0.41556   0.12283   0.00000  Uiso   1.00
C695   C     0.44876   0.38833   0.10674   0.00000  Uiso   1.00
C696   C     0.76114   0.46433   0.06571   0.00000  Uiso   1.00
C697   C     0.78634   0.52427   0.05388   0.00000  Uiso   1.00
C698   C     0.80965   0.53563   0.99250   0.00000  Uiso   1.00
C699   C     0.85349   0.57789   0.90099   0.00000  Uiso   1.00
C700   C     0.77023   0.38205   0.14771   0.00000  Uiso   1.00
C701   C     0.80308   0.37281   0.20481   0.00000  Uiso   1.00
C702   C     0.83405   0.31491   0.21247   0.00000  Uiso   1.00
C703   C     0.89200   0.22942   0.24826   0.00000  Uiso   1.00
C704   C     0.72969   0.35533   0.04138   0.00000  Uiso   1.00
C705   C     0.66374   0.37264   0.06652   0.00000  Uiso   1.00
C706   C     0.60667   0.34629   0.04600   0.00000  Uiso   1.00
C707   C     0.55145   0.36855   0.07498   0.00000  Uiso   1.00
C708   C     0.75929   0.41741   0.01794   0.00000  Uiso   1.00
C709   C     0.78257   0.42869   0.95657   0.00000  Uiso   1.00
C710   C     0.80779   0.48863   0.94465   0.00000  Uiso   1.00
C711   C     0.76837   0.33513   0.09994   0.00000  Uiso   1.00
C712   C     0.79930   0.27724   0.10750   0.00000  Uiso   1.00
C713   C     0.83219   0.26791   0.16461   0.00000  Uiso   1.00
H714   H     0.73454   0.47824   0.16652   0.00000  Uiso   1.00
H715   H     0.61190   0.47818   0.18027   0.00000  Uiso   1.00
H716   H     0.78778   0.56056   0.09086   0.00000  Uiso   1.00
H717   H     0.80451   0.40913   0.24177   0.00000  Uiso   1.00
H718   H     0.47510   0.45744   0.17444   0.00000  Uiso   1.00
H719   H     0.84597   0.63114   0.98590   0.00000  Uiso   1.00
H720   H     0.88125   0.31182   0.30413   0.00000  Uiso   1.00
H721   H     0.72825   0.31880   0.00419   0.00000  Uiso   1.00
H722   H     0.60525   0.30998   0.00903   0.00000  Uiso   1.00
H723   H     0.78113   0.39237   0.91962   0.00000  Uiso   1.00
H724   H     0.79786   0.24094   0.07053   0.00000  Uiso   1.00
H725   H     0.46971   0.32092   0.03545   0.00000  Uiso   1.00
H726   H     0.84058   0.49462   0.84692   0.00000  Uiso   1.00
H727   H     0.87586   0.17530   0.16514   0.00000  Uiso   1.00
O728   O     0.39161   0.38628   0.11105   0.00000  Uiso   1.00
O729   O     0.87818   0.61416   0.86371   0.00000  Uiso   1.00
O730   O     0.92447   0.19522   0.28121   0.00000  Uiso   1.00
N731   N     0.49071   0.42651   0.14107   0.00000  Uiso   1.00
N732   N     0.83744   0.58891   0.96480   0.00000  Uiso   1.00
N733   N     0.87044   0.29038   0.26231   0.00000  Uiso   1.00
N734   N     0.48781   0.35305   0.06628   0.00000  Uiso   1.00
N735   N     0.83454   0.51546   0.89001   0.00000  Uiso   1.00
N736   N     0.86754   0.21692   0.18752   0.00000  Uiso   1.00
