data_job_05644
_audit_creation_date              2018-12-19
_audit_creation_method            'Materials Studio'
_symmetry_space_group_name_H-M    'P1'
_symmetry_Int_Tables_number       1
_symmetry_cell_setting            triclinic
loop_
_symmetry_equiv_pos_as_xyz
  x,y,z
_cell_length_a                    15.4504
_cell_length_b                    15.4504
_cell_length_c                    40.7085
_cell_angle_alpha                 90.0000
_cell_angle_beta                  90.0000
_cell_angle_gamma                 90.0000
loop_
_atom_site_label
_atom_site_type_symbol
_atom_site_fract_x
_atom_site_fract_y
_atom_site_fract_z
_atom_site_U_iso_or_equiv
_atom_site_adp_type
_atom_site_occupancy
C1     C     0.10447   0.35213   0.35796   0.00000  Uiso   1.00
C2     C     0.18540   0.33728   0.33727   0.00000  Uiso   1.00
C3     C     0.24998   0.39774   0.33136   0.00000  Uiso   1.00
C4     C     0.31876   0.37157   0.31179   0.00000  Uiso   1.00
C5     C     0.44380   0.36125   0.28166   0.00000  Uiso   1.00
C6     C     0.02788   0.33155   0.33566   0.00000  Uiso   1.00
C7     C     0.96001   0.38719   0.32839   0.00000  Uiso   1.00
C8     C     0.89618   0.35618   0.30746   0.00000  Uiso   1.00
C9     C     0.77664   0.33694   0.27485   0.00000  Uiso   1.00
C10    C     0.10513   0.28204   0.38433   0.00000  Uiso   1.00
C11    C     0.10219   0.29604   0.41798   0.00000  Uiso   1.00
C12    C     0.10339   0.22335   0.43803   0.00000  Uiso   1.00
C13    C     0.10379   0.12723   0.48098   0.00000  Uiso   1.00
C14    C     0.11179   0.19814   0.33371   0.00000  Uiso   1.00
C15    C     0.18938   0.25364   0.32410   0.00000  Uiso   1.00
C16    C     0.25808   0.22737   0.30454   0.00000  Uiso   1.00
C17    C     0.32275   0.28778   0.29860   0.00000  Uiso   1.00
C18    C     0.03186   0.24791   0.32249   0.00000  Uiso   1.00
C19    C     0.96811   0.21681   0.30157   0.00000  Uiso   1.00
C20    C     0.90017   0.27239   0.29427   0.00000  Uiso   1.00
C21    C     0.10911   0.19839   0.37116   0.00000  Uiso   1.00
C22    C     0.11030   0.12567   0.39116   0.00000  Uiso   1.00
C23    C     0.10737   0.13956   0.42484   0.00000  Uiso   1.00
H24    H     0.10137   0.41725   0.36821   0.00000  Uiso   1.00
H25    H     0.24687   0.46247   0.34155   0.00000  Uiso   1.00
H26    H     0.95694   0.45191   0.33859   0.00000  Uiso   1.00
H27    H     0.09911   0.36078   0.42816   0.00000  Uiso   1.00
H28    H     0.40993   0.47572   0.30618   0.00000  Uiso   1.00
H29    H     0.79859   0.45345   0.29994   0.00000  Uiso   1.00
H30    H     0.09837   0.26128   0.48883   0.00000  Uiso   1.00
H31    H     0.11489   0.13302   0.32346   0.00000  Uiso   1.00
H32    H     0.26114   0.16263   0.29435   0.00000  Uiso   1.00
H33    H     0.97121   0.15208   0.29139   0.00000  Uiso   1.00
H34    H     0.11338   0.06095   0.38096   0.00000  Uiso   1.00
H35    H     0.42151   0.23237   0.26787   0.00000  Uiso   1.00
H36    H     0.81016   0.21010   0.26163   0.00000  Uiso   1.00
H37    H     0.10995   0.01793   0.45052   0.00000  Uiso   1.00
O38    O     0.51167   0.37867   0.26867   0.00000  Uiso   1.00
O39    O     0.70961   0.34944   0.26049   0.00000  Uiso   1.00
O40    O     0.10292   0.09732   0.50831   0.00000  Uiso   1.00
N41    N     0.39259   0.41438   0.30116   0.00000  Uiso   1.00
N42    N     0.82103   0.39356   0.29533   0.00000  Uiso   1.00
N43    N     0.10128   0.21390   0.47192   0.00000  Uiso   1.00
N44    N     0.39882   0.28343   0.28055   0.00000  Uiso   1.00
N45    N     0.82726   0.26261   0.27471   0.00000  Uiso   1.00
N46    N     0.10751   0.08295   0.45131   0.00000  Uiso   1.00
C47    C     0.60447   0.85213   0.85796   0.00000  Uiso   1.00
C48    C     0.68540   0.83728   0.83727   0.00000  Uiso   1.00
C49    C     0.74998   0.89774   0.83136   0.00000  Uiso   1.00
C50    C     0.81876   0.87157   0.81179   0.00000  Uiso   1.00
C51    C     0.94380   0.86125   0.78166   0.00000  Uiso   1.00
C52    C     0.52788   0.83155   0.83566   0.00000  Uiso   1.00
C53    C     0.46001   0.88719   0.82839   0.00000  Uiso   1.00
C54    C     0.39618   0.85618   0.80746   0.00000  Uiso   1.00
C55    C     0.27664   0.83694   0.77485   0.00000  Uiso   1.00
C56    C     0.60513   0.78204   0.88433   0.00000  Uiso   1.00
C57    C     0.60219   0.79604   0.91798   0.00000  Uiso   1.00
C58    C     0.60339   0.72335   0.93803   0.00000  Uiso   1.00
C59    C     0.60379   0.62723   0.98098   0.00000  Uiso   1.00
C60    C     0.61179   0.69814   0.83371   0.00000  Uiso   1.00
C61    C     0.68938   0.75364   0.82410   0.00000  Uiso   1.00
C62    C     0.75808   0.72737   0.80454   0.00000  Uiso   1.00
C63    C     0.82275   0.78778   0.79860   0.00000  Uiso   1.00
C64    C     0.53186   0.74791   0.82249   0.00000  Uiso   1.00
C65    C     0.46811   0.71681   0.80157   0.00000  Uiso   1.00
C66    C     0.40017   0.77239   0.79427   0.00000  Uiso   1.00
C67    C     0.60911   0.69839   0.87116   0.00000  Uiso   1.00
C68    C     0.61030   0.62567   0.89116   0.00000  Uiso   1.00
C69    C     0.60737   0.63956   0.92484   0.00000  Uiso   1.00
H70    H     0.60137   0.91725   0.86821   0.00000  Uiso   1.00
H71    H     0.74687   0.96247   0.84155   0.00000  Uiso   1.00
H72    H     0.45694   0.95191   0.83859   0.00000  Uiso   1.00
H73    H     0.59911   0.86078   0.92816   0.00000  Uiso   1.00
H74    H     0.90993   0.97572   0.80618   0.00000  Uiso   1.00
H75    H     0.29859   0.95345   0.79994   0.00000  Uiso   1.00
H76    H     0.59837   0.76128   0.98883   0.00000  Uiso   1.00
H77    H     0.61489   0.63302   0.82346   0.00000  Uiso   1.00
H78    H     0.76114   0.66263   0.79435   0.00000  Uiso   1.00
H79    H     0.47121   0.65208   0.79139   0.00000  Uiso   1.00
H80    H     0.61338   0.56095   0.88096   0.00000  Uiso   1.00
H81    H     0.92151   0.73237   0.76787   0.00000  Uiso   1.00
H82    H     0.31016   0.71010   0.76163   0.00000  Uiso   1.00
H83    H     0.60995   0.51793   0.95052   0.00000  Uiso   1.00
O84    O     0.01167   0.87867   0.76867   0.00000  Uiso   1.00
O85    O     0.20961   0.84944   0.76049   0.00000  Uiso   1.00
O86    O     0.60292   0.59732   0.00831   0.00000  Uiso   1.00
N87    N     0.89259   0.91438   0.80116   0.00000  Uiso   1.00
N88    N     0.32103   0.89356   0.79533   0.00000  Uiso   1.00
N89    N     0.60128   0.71390   0.97192   0.00000  Uiso   1.00
N90    N     0.89882   0.78343   0.78055   0.00000  Uiso   1.00
N91    N     0.32726   0.76261   0.77471   0.00000  Uiso   1.00
N92    N     0.60751   0.58295   0.95131   0.00000  Uiso   1.00
C93    C     0.39553   0.14787   0.85796   0.00000  Uiso   1.00
C94    C     0.31460   0.16272   0.83727   0.00000  Uiso   1.00
C95    C     0.25002   0.10226   0.83136   0.00000  Uiso   1.00
C96    C     0.18124   0.12843   0.81179   0.00000  Uiso   1.00
C97    C     0.05620   0.13875   0.78166   0.00000  Uiso   1.00
C98    C     0.47212   0.16845   0.83566   0.00000  Uiso   1.00
C99    C     0.53999   0.11281   0.82839   0.00000  Uiso   1.00
C100   C     0.60382   0.14382   0.80746   0.00000  Uiso   1.00
C101   C     0.72336   0.16306   0.77485   0.00000  Uiso   1.00
C102   C     0.39487   0.21796   0.88433   0.00000  Uiso   1.00
C103   C     0.39781   0.20396   0.91798   0.00000  Uiso   1.00
C104   C     0.39661   0.27665   0.93803   0.00000  Uiso   1.00
C105   C     0.39621   0.37277   0.98098   0.00000  Uiso   1.00
C106   C     0.38821   0.30186   0.83371   0.00000  Uiso   1.00
C107   C     0.31062   0.24636   0.82410   0.00000  Uiso   1.00
C108   C     0.24192   0.27263   0.80454   0.00000  Uiso   1.00
C109   C     0.17725   0.21222   0.79860   0.00000  Uiso   1.00
C110   C     0.46814   0.25209   0.82249   0.00000  Uiso   1.00
C111   C     0.53189   0.28319   0.80157   0.00000  Uiso   1.00
C112   C     0.59983   0.22761   0.79427   0.00000  Uiso   1.00
C113   C     0.39089   0.30161   0.87116   0.00000  Uiso   1.00
C114   C     0.38970   0.37433   0.89116   0.00000  Uiso   1.00
C115   C     0.39263   0.36044   0.92484   0.00000  Uiso   1.00
H116   H     0.39863   0.08275   0.86821   0.00000  Uiso   1.00
H117   H     0.25313   0.03753   0.84155   0.00000  Uiso   1.00
H118   H     0.54306   0.04809   0.83859   0.00000  Uiso   1.00
H119   H     0.40089   0.13922   0.92816   0.00000  Uiso   1.00
H120   H     0.09007   0.02428   0.80618   0.00000  Uiso   1.00
H121   H     0.70141   0.04655   0.79994   0.00000  Uiso   1.00
H122   H     0.40163   0.23872   0.98883   0.00000  Uiso   1.00
H123   H     0.38511   0.36698   0.82346   0.00000  Uiso   1.00
H124   H     0.23886   0.33737   0.79435   0.00000  Uiso   1.00
H125   H     0.52879   0.34792   0.79139   0.00000  Uiso   1.00
H126   H     0.38662   0.43905   0.88096   0.00000  Uiso   1.00
H127   H     0.07849   0.26763   0.76787   0.00000  Uiso   1.00
H128   H     0.68984   0.28990   0.76163   0.00000  Uiso   1.00
H129   H     0.39005   0.48207   0.95052   0.00000  Uiso   1.00
O130   O     0.98833   0.12133   0.76867   0.00000  Uiso   1.00
O131   O     0.79039   0.15056   0.76049   0.00000  Uiso   1.00
O132   O     0.39708   0.40268   0.00831   0.00000  Uiso   1.00
N133   N     0.10741   0.08562   0.80116   0.00000  Uiso   1.00
N134   N     0.67897   0.10644   0.79533   0.00000  Uiso   1.00
N135   N     0.39872   0.28610   0.97192   0.00000  Uiso   1.00
N136   N     0.10118   0.21657   0.78055   0.00000  Uiso   1.00
N137   N     0.67274   0.23739   0.77471   0.00000  Uiso   1.00
N138   N     0.39249   0.41705   0.95131   0.00000  Uiso   1.00
C139   C     0.89553   0.64787   0.35796   0.00000  Uiso   1.00
C140   C     0.81460   0.66272   0.33727   0.00000  Uiso   1.00
C141   C     0.75002   0.60226   0.33136   0.00000  Uiso   1.00
C142   C     0.68124   0.62843   0.31179   0.00000  Uiso   1.00
C143   C     0.55620   0.63875   0.28166   0.00000  Uiso   1.00
C144   C     0.97212   0.66845   0.33566   0.00000  Uiso   1.00
C145   C     0.03999   0.61281   0.32839   0.00000  Uiso   1.00
C146   C     0.10382   0.64382   0.30746   0.00000  Uiso   1.00
C147   C     0.22336   0.66306   0.27485   0.00000  Uiso   1.00
C148   C     0.89487   0.71796   0.38433   0.00000  Uiso   1.00
C149   C     0.89781   0.70396   0.41798   0.00000  Uiso   1.00
C150   C     0.89661   0.77665   0.43803   0.00000  Uiso   1.00
C151   C     0.89621   0.87277   0.48098   0.00000  Uiso   1.00
C152   C     0.88821   0.80186   0.33371   0.00000  Uiso   1.00
C153   C     0.81062   0.74636   0.32410   0.00000  Uiso   1.00
C154   C     0.74192   0.77263   0.30454   0.00000  Uiso   1.00
C155   C     0.67725   0.71222   0.29860   0.00000  Uiso   1.00
C156   C     0.96814   0.75209   0.32249   0.00000  Uiso   1.00
C157   C     0.03189   0.78319   0.30157   0.00000  Uiso   1.00
C158   C     0.09983   0.72761   0.29427   0.00000  Uiso   1.00
C159   C     0.89089   0.80161   0.37116   0.00000  Uiso   1.00
C160   C     0.88970   0.87433   0.39116   0.00000  Uiso   1.00
C161   C     0.89263   0.86044   0.42484   0.00000  Uiso   1.00
H162   H     0.89863   0.58275   0.36821   0.00000  Uiso   1.00
H163   H     0.75313   0.53753   0.34155   0.00000  Uiso   1.00
H164   H     0.04306   0.54809   0.33859   0.00000  Uiso   1.00
H165   H     0.90089   0.63922   0.42816   0.00000  Uiso   1.00
H166   H     0.59007   0.52428   0.30618   0.00000  Uiso   1.00
H167   H     0.20141   0.54655   0.29994   0.00000  Uiso   1.00
H168   H     0.90163   0.73872   0.48883   0.00000  Uiso   1.00
H169   H     0.88511   0.86698   0.32346   0.00000  Uiso   1.00
H170   H     0.73886   0.83737   0.29435   0.00000  Uiso   1.00
H171   H     0.02879   0.84792   0.29139   0.00000  Uiso   1.00
H172   H     0.88662   0.93905   0.38096   0.00000  Uiso   1.00
H173   H     0.57849   0.76763   0.26787   0.00000  Uiso   1.00
H174   H     0.18984   0.78990   0.26163   0.00000  Uiso   1.00
H175   H     0.89005   0.98207   0.45052   0.00000  Uiso   1.00
O176   O     0.48833   0.62133   0.26867   0.00000  Uiso   1.00
O177   O     0.29039   0.65056   0.26049   0.00000  Uiso   1.00
O178   O     0.89708   0.90268   0.50831   0.00000  Uiso   1.00
N179   N     0.60741   0.58562   0.30116   0.00000  Uiso   1.00
N180   N     0.17897   0.60644   0.29533   0.00000  Uiso   1.00
N181   N     0.89872   0.78610   0.47192   0.00000  Uiso   1.00
N182   N     0.60118   0.71657   0.28055   0.00000  Uiso   1.00
N183   N     0.17274   0.73739   0.27471   0.00000  Uiso   1.00
N184   N     0.89249   0.91705   0.45131   0.00000  Uiso   1.00
C185   C     0.64787   0.60447   0.60796   0.00000  Uiso   1.00
C186   C     0.66272   0.68540   0.58727   0.00000  Uiso   1.00
C187   C     0.60226   0.74998   0.58136   0.00000  Uiso   1.00
C188   C     0.62843   0.81876   0.56179   0.00000  Uiso   1.00
C189   C     0.63875   0.94380   0.53166   0.00000  Uiso   1.00
C190   C     0.66845   0.52788   0.58566   0.00000  Uiso   1.00
C191   C     0.61281   0.46001   0.57839   0.00000  Uiso   1.00
C192   C     0.64382   0.39618   0.55746   0.00000  Uiso   1.00
C193   C     0.66306   0.27664   0.52485   0.00000  Uiso   1.00
C194   C     0.71796   0.60513   0.63433   0.00000  Uiso   1.00
C195   C     0.70396   0.60219   0.66798   0.00000  Uiso   1.00
C196   C     0.77665   0.60339   0.68803   0.00000  Uiso   1.00
C197   C     0.87277   0.60379   0.73098   0.00000  Uiso   1.00
C198   C     0.80186   0.61179   0.58371   0.00000  Uiso   1.00
C199   C     0.74636   0.68938   0.57410   0.00000  Uiso   1.00
C200   C     0.77263   0.75808   0.55454   0.00000  Uiso   1.00
C201   C     0.71222   0.82275   0.54860   0.00000  Uiso   1.00
C202   C     0.75209   0.53186   0.57249   0.00000  Uiso   1.00
C203   C     0.78319   0.46811   0.55157   0.00000  Uiso   1.00
C204   C     0.72761   0.40017   0.54427   0.00000  Uiso   1.00
C205   C     0.80161   0.60911   0.62116   0.00000  Uiso   1.00
C206   C     0.87433   0.61030   0.64116   0.00000  Uiso   1.00
C207   C     0.86044   0.60737   0.67484   0.00000  Uiso   1.00
H208   H     0.58275   0.60137   0.61821   0.00000  Uiso   1.00
H209   H     0.53753   0.74687   0.59155   0.00000  Uiso   1.00
H210   H     0.54809   0.45694   0.58859   0.00000  Uiso   1.00
H211   H     0.63922   0.59911   0.67816   0.00000  Uiso   1.00
H212   H     0.52428   0.90993   0.55618   0.00000  Uiso   1.00
H213   H     0.54655   0.29859   0.54994   0.00000  Uiso   1.00
H214   H     0.73872   0.59837   0.73883   0.00000  Uiso   1.00
H215   H     0.86698   0.61489   0.57346   0.00000  Uiso   1.00
H216   H     0.83737   0.76114   0.54435   0.00000  Uiso   1.00
H217   H     0.84792   0.47121   0.54139   0.00000  Uiso   1.00
H218   H     0.93905   0.61338   0.63096   0.00000  Uiso   1.00
H219   H     0.76763   0.92151   0.51787   0.00000  Uiso   1.00
H220   H     0.78990   0.31016   0.51163   0.00000  Uiso   1.00
H221   H     0.98207   0.60995   0.70052   0.00000  Uiso   1.00
O222   O     0.62133   0.01167   0.51867   0.00000  Uiso   1.00
O223   O     0.65056   0.20961   0.51049   0.00000  Uiso   1.00
O224   O     0.90268   0.60292   0.75831   0.00000  Uiso   1.00
N225   N     0.58562   0.89259   0.55116   0.00000  Uiso   1.00
N226   N     0.60644   0.32103   0.54533   0.00000  Uiso   1.00
N227   N     0.78610   0.60128   0.72192   0.00000  Uiso   1.00
N228   N     0.71657   0.89882   0.53055   0.00000  Uiso   1.00
N229   N     0.73739   0.32726   0.52471   0.00000  Uiso   1.00
N230   N     0.91705   0.60751   0.70131   0.00000  Uiso   1.00
C231   C     0.14787   0.10447   0.10796   0.00000  Uiso   1.00
C232   C     0.16272   0.18540   0.08727   0.00000  Uiso   1.00
C233   C     0.10226   0.24998   0.08136   0.00000  Uiso   1.00
C234   C     0.12843   0.31876   0.06179   0.00000  Uiso   1.00
C235   C     0.13875   0.44380   0.03166   0.00000  Uiso   1.00
C236   C     0.16845   0.02788   0.08566   0.00000  Uiso   1.00
C237   C     0.11281   0.96001   0.07839   0.00000  Uiso   1.00
C238   C     0.14382   0.89618   0.05746   0.00000  Uiso   1.00
C239   C     0.16306   0.77664   0.02485   0.00000  Uiso   1.00
C240   C     0.21796   0.10513   0.13433   0.00000  Uiso   1.00
C241   C     0.20396   0.10219   0.16798   0.00000  Uiso   1.00
C242   C     0.27665   0.10339   0.18803   0.00000  Uiso   1.00
C243   C     0.37277   0.10379   0.23098   0.00000  Uiso   1.00
C244   C     0.30186   0.11179   0.08371   0.00000  Uiso   1.00
C245   C     0.24636   0.18938   0.07410   0.00000  Uiso   1.00
C246   C     0.27263   0.25808   0.05454   0.00000  Uiso   1.00
C247   C     0.21222   0.32275   0.04860   0.00000  Uiso   1.00
C248   C     0.25209   0.03186   0.07249   0.00000  Uiso   1.00
C249   C     0.28319   0.96811   0.05157   0.00000  Uiso   1.00
C250   C     0.22761   0.90017   0.04427   0.00000  Uiso   1.00
C251   C     0.30161   0.10911   0.12116   0.00000  Uiso   1.00
C252   C     0.37433   0.11030   0.14116   0.00000  Uiso   1.00
C253   C     0.36044   0.10737   0.17484   0.00000  Uiso   1.00
H254   H     0.08275   0.10137   0.11821   0.00000  Uiso   1.00
H255   H     0.03753   0.24687   0.09155   0.00000  Uiso   1.00
H256   H     0.04809   0.95694   0.08859   0.00000  Uiso   1.00
H257   H     0.13922   0.09911   0.17816   0.00000  Uiso   1.00
H258   H     0.02428   0.40993   0.05618   0.00000  Uiso   1.00
H259   H     0.04655   0.79859   0.04994   0.00000  Uiso   1.00
H260   H     0.23872   0.09837   0.23883   0.00000  Uiso   1.00
H261   H     0.36698   0.11489   0.07346   0.00000  Uiso   1.00
H262   H     0.33737   0.26114   0.04435   0.00000  Uiso   1.00
H263   H     0.34792   0.97121   0.04139   0.00000  Uiso   1.00
H264   H     0.43905   0.11338   0.13096   0.00000  Uiso   1.00
H265   H     0.26763   0.42151   0.01787   0.00000  Uiso   1.00
H266   H     0.28990   0.81016   0.01163   0.00000  Uiso   1.00
H267   H     0.48207   0.10995   0.20052   0.00000  Uiso   1.00
O268   O     0.12133   0.51167   0.01867   0.00000  Uiso   1.00
O269   O     0.15056   0.70961   0.01049   0.00000  Uiso   1.00
O270   O     0.40268   0.10292   0.25831   0.00000  Uiso   1.00
N271   N     0.08562   0.39259   0.05116   0.00000  Uiso   1.00
N272   N     0.10644   0.82103   0.04533   0.00000  Uiso   1.00
N273   N     0.28610   0.10128   0.22192   0.00000  Uiso   1.00
N274   N     0.21657   0.39882   0.03055   0.00000  Uiso   1.00
N275   N     0.23739   0.82726   0.02471   0.00000  Uiso   1.00
N276   N     0.41705   0.10751   0.20131   0.00000  Uiso   1.00
C277   C     0.85213   0.89553   0.10796   0.00000  Uiso   1.00
C278   C     0.83728   0.81460   0.08727   0.00000  Uiso   1.00
C279   C     0.89774   0.75002   0.08136   0.00000  Uiso   1.00
C280   C     0.87157   0.68124   0.06179   0.00000  Uiso   1.00
C281   C     0.86125   0.55620   0.03166   0.00000  Uiso   1.00
C282   C     0.83155   0.97212   0.08566   0.00000  Uiso   1.00
C283   C     0.88719   0.03999   0.07839   0.00000  Uiso   1.00
C284   C     0.85618   0.10382   0.05746   0.00000  Uiso   1.00
C285   C     0.83694   0.22336   0.02485   0.00000  Uiso   1.00
C286   C     0.78204   0.89487   0.13433   0.00000  Uiso   1.00
C287   C     0.79604   0.89781   0.16798   0.00000  Uiso   1.00
C288   C     0.72335   0.89661   0.18803   0.00000  Uiso   1.00
C289   C     0.62723   0.89621   0.23098   0.00000  Uiso   1.00
C290   C     0.69814   0.88821   0.08371   0.00000  Uiso   1.00
C291   C     0.75364   0.81062   0.07410   0.00000  Uiso   1.00
C292   C     0.72737   0.74192   0.05454   0.00000  Uiso   1.00
C293   C     0.78778   0.67725   0.04860   0.00000  Uiso   1.00
C294   C     0.74791   0.96814   0.07249   0.00000  Uiso   1.00
C295   C     0.71681   0.03189   0.05157   0.00000  Uiso   1.00
C296   C     0.77239   0.09983   0.04427   0.00000  Uiso   1.00
C297   C     0.69839   0.89089   0.12116   0.00000  Uiso   1.00
C298   C     0.62567   0.88970   0.14116   0.00000  Uiso   1.00
C299   C     0.63956   0.89263   0.17484   0.00000  Uiso   1.00
H300   H     0.91725   0.89863   0.11821   0.00000  Uiso   1.00
H301   H     0.96247   0.75313   0.09155   0.00000  Uiso   1.00
H302   H     0.95191   0.04306   0.08859   0.00000  Uiso   1.00
H303   H     0.86078   0.90089   0.17816   0.00000  Uiso   1.00
H304   H     0.97572   0.59007   0.05618   0.00000  Uiso   1.00
H305   H     0.95345   0.20141   0.04994   0.00000  Uiso   1.00
H306   H     0.76128   0.90163   0.23883   0.00000  Uiso   1.00
H307   H     0.63302   0.88511   0.07346   0.00000  Uiso   1.00
H308   H     0.66263   0.73886   0.04435   0.00000  Uiso   1.00
H309   H     0.65208   0.02879   0.04139   0.00000  Uiso   1.00
H310   H     0.56095   0.88662   0.13096   0.00000  Uiso   1.00
H311   H     0.73237   0.57849   0.01787   0.00000  Uiso   1.00
H312   H     0.71010   0.18984   0.01163   0.00000  Uiso   1.00
H313   H     0.51793   0.89005   0.20052   0.00000  Uiso   1.00
O314   O     0.87867   0.48833   0.01867   0.00000  Uiso   1.00
O315   O     0.84944   0.29039   0.01049   0.00000  Uiso   1.00
O316   O     0.59732   0.89708   0.25831   0.00000  Uiso   1.00
N317   N     0.91438   0.60741   0.05116   0.00000  Uiso   1.00
N318   N     0.89356   0.17897   0.04533   0.00000  Uiso   1.00
N319   N     0.71390   0.89872   0.22192   0.00000  Uiso   1.00
N320   N     0.78343   0.60118   0.03055   0.00000  Uiso   1.00
N321   N     0.76261   0.17274   0.02471   0.00000  Uiso   1.00
N322   N     0.58295   0.89249   0.20131   0.00000  Uiso   1.00
C323   C     0.35213   0.39553   0.60796   0.00000  Uiso   1.00
C324   C     0.33728   0.31460   0.58727   0.00000  Uiso   1.00
C325   C     0.39774   0.25002   0.58136   0.00000  Uiso   1.00
C326   C     0.37157   0.18124   0.56179   0.00000  Uiso   1.00
C327   C     0.36125   0.05620   0.53166   0.00000  Uiso   1.00
C328   C     0.33155   0.47212   0.58566   0.00000  Uiso   1.00
C329   C     0.38719   0.53999   0.57839   0.00000  Uiso   1.00
C330   C     0.35618   0.60382   0.55746   0.00000  Uiso   1.00
C331   C     0.33694   0.72336   0.52485   0.00000  Uiso   1.00
C332   C     0.28204   0.39487   0.63433   0.00000  Uiso   1.00
C333   C     0.29604   0.39781   0.66798   0.00000  Uiso   1.00
C334   C     0.22335   0.39661   0.68803   0.00000  Uiso   1.00
C335   C     0.12723   0.39621   0.73098   0.00000  Uiso   1.00
C336   C     0.19814   0.38821   0.58371   0.00000  Uiso   1.00
C337   C     0.25364   0.31062   0.57410   0.00000  Uiso   1.00
C338   C     0.22737   0.24192   0.55454   0.00000  Uiso   1.00
C339   C     0.28778   0.17725   0.54860   0.00000  Uiso   1.00
C340   C     0.24791   0.46814   0.57249   0.00000  Uiso   1.00
C341   C     0.21681   0.53189   0.55157   0.00000  Uiso   1.00
C342   C     0.27239   0.59983   0.54427   0.00000  Uiso   1.00
C343   C     0.19839   0.39089   0.62116   0.00000  Uiso   1.00
C344   C     0.12567   0.38970   0.64116   0.00000  Uiso   1.00
C345   C     0.13956   0.39263   0.67484   0.00000  Uiso   1.00
H346   H     0.41725   0.39863   0.61821   0.00000  Uiso   1.00
H347   H     0.46247   0.25313   0.59155   0.00000  Uiso   1.00
H348   H     0.45191   0.54306   0.58859   0.00000  Uiso   1.00
H349   H     0.36078   0.40089   0.67816   0.00000  Uiso   1.00
H350   H     0.47572   0.09007   0.55618   0.00000  Uiso   1.00
H351   H     0.45345   0.70141   0.54994   0.00000  Uiso   1.00
H352   H     0.26128   0.40163   0.73883   0.00000  Uiso   1.00
H353   H     0.13302   0.38511   0.57346   0.00000  Uiso   1.00
H354   H     0.16263   0.23886   0.54435   0.00000  Uiso   1.00
H355   H     0.15208   0.52879   0.54139   0.00000  Uiso   1.00
H356   H     0.06095   0.38662   0.63096   0.00000  Uiso   1.00
H357   H     0.23237   0.07849   0.51787   0.00000  Uiso   1.00
H358   H     0.21010   0.68984   0.51163   0.00000  Uiso   1.00
H359   H     0.01793   0.39005   0.70052   0.00000  Uiso   1.00
O360   O     0.37867   0.98833   0.51867   0.00000  Uiso   1.00
O361   O     0.34944   0.79039   0.51049   0.00000  Uiso   1.00
O362   O     0.09732   0.39708   0.75831   0.00000  Uiso   1.00
N363   N     0.41438   0.10741   0.55116   0.00000  Uiso   1.00
N364   N     0.39356   0.67897   0.54533   0.00000  Uiso   1.00
N365   N     0.21390   0.39872   0.72192   0.00000  Uiso   1.00
N366   N     0.28343   0.10118   0.53055   0.00000  Uiso   1.00
N367   N     0.26261   0.67274   0.52471   0.00000  Uiso   1.00
N368   N     0.08295   0.39249   0.70131   0.00000  Uiso   1.00
C369   C     0.89553   0.14787   0.89204   0.00000  Uiso   1.00
C370   C     0.81460   0.16272   0.91273   0.00000  Uiso   1.00
C371   C     0.75002   0.10226   0.91864   0.00000  Uiso   1.00
C372   C     0.68124   0.12843   0.93821   0.00000  Uiso   1.00
C373   C     0.55620   0.13875   0.96834   0.00000  Uiso   1.00
C374   C     0.97212   0.16845   0.91434   0.00000  Uiso   1.00
C375   C     0.03999   0.11281   0.92161   0.00000  Uiso   1.00
C376   C     0.10382   0.14382   0.94254   0.00000  Uiso   1.00
C377   C     0.22336   0.16306   0.97515   0.00000  Uiso   1.00
C378   C     0.89487   0.21796   0.86567   0.00000  Uiso   1.00
C379   C     0.89781   0.20396   0.83202   0.00000  Uiso   1.00
C380   C     0.89661   0.27665   0.81197   0.00000  Uiso   1.00
C381   C     0.89621   0.37277   0.76902   0.00000  Uiso   1.00
C382   C     0.88821   0.30186   0.91629   0.00000  Uiso   1.00
C383   C     0.81062   0.24636   0.92590   0.00000  Uiso   1.00
C384   C     0.74192   0.27263   0.94546   0.00000  Uiso   1.00
C385   C     0.67725   0.21222   0.95140   0.00000  Uiso   1.00
C386   C     0.96814   0.25209   0.92751   0.00000  Uiso   1.00
C387   C     0.03189   0.28319   0.94843   0.00000  Uiso   1.00
C388   C     0.09983   0.22761   0.95573   0.00000  Uiso   1.00
C389   C     0.89089   0.30161   0.87884   0.00000  Uiso   1.00
C390   C     0.88970   0.37433   0.85884   0.00000  Uiso   1.00
C391   C     0.89263   0.36044   0.82516   0.00000  Uiso   1.00
H392   H     0.89863   0.08275   0.88179   0.00000  Uiso   1.00
H393   H     0.75313   0.03753   0.90845   0.00000  Uiso   1.00
H394   H     0.04306   0.04809   0.91141   0.00000  Uiso   1.00
H395   H     0.90089   0.13922   0.82184   0.00000  Uiso   1.00
H396   H     0.59007   0.02428   0.94382   0.00000  Uiso   1.00
H397   H     0.20141   0.04655   0.95006   0.00000  Uiso   1.00
H398   H     0.90163   0.23872   0.76117   0.00000  Uiso   1.00
H399   H     0.88511   0.36698   0.92654   0.00000  Uiso   1.00
H400   H     0.73886   0.33737   0.95565   0.00000  Uiso   1.00
H401   H     0.02879   0.34792   0.95861   0.00000  Uiso   1.00
H402   H     0.88662   0.43905   0.86904   0.00000  Uiso   1.00
H403   H     0.57849   0.26763   0.98213   0.00000  Uiso   1.00
H404   H     0.18984   0.28990   0.98837   0.00000  Uiso   1.00
H405   H     0.89005   0.48207   0.79948   0.00000  Uiso   1.00
O406   O     0.48833   0.12133   0.98133   0.00000  Uiso   1.00
O407   O     0.29039   0.15056   0.98951   0.00000  Uiso   1.00
O408   O     0.89708   0.40268   0.74169   0.00000  Uiso   1.00
N409   N     0.60741   0.08562   0.94884   0.00000  Uiso   1.00
N410   N     0.17897   0.10644   0.95467   0.00000  Uiso   1.00
N411   N     0.89872   0.28610   0.77808   0.00000  Uiso   1.00
N412   N     0.60118   0.21657   0.96945   0.00000  Uiso   1.00
N413   N     0.17274   0.23739   0.97529   0.00000  Uiso   1.00
N414   N     0.89249   0.41705   0.79869   0.00000  Uiso   1.00
C415   C     0.39553   0.64787   0.39204   0.00000  Uiso   1.00
C416   C     0.31460   0.66272   0.41273   0.00000  Uiso   1.00
C417   C     0.25002   0.60226   0.41864   0.00000  Uiso   1.00
C418   C     0.18124   0.62843   0.43821   0.00000  Uiso   1.00
C419   C     0.05620   0.63875   0.46834   0.00000  Uiso   1.00
C420   C     0.47212   0.66845   0.41434   0.00000  Uiso   1.00
C421   C     0.53999   0.61281   0.42161   0.00000  Uiso   1.00
C422   C     0.60382   0.64382   0.44254   0.00000  Uiso   1.00
C423   C     0.72336   0.66306   0.47515   0.00000  Uiso   1.00
C424   C     0.39487   0.71796   0.36567   0.00000  Uiso   1.00
C425   C     0.39781   0.70396   0.33202   0.00000  Uiso   1.00
C426   C     0.39661   0.77665   0.31197   0.00000  Uiso   1.00
C427   C     0.39621   0.87277   0.26902   0.00000  Uiso   1.00
C428   C     0.38821   0.80186   0.41629   0.00000  Uiso   1.00
C429   C     0.31062   0.74636   0.42590   0.00000  Uiso   1.00
C430   C     0.24192   0.77263   0.44546   0.00000  Uiso   1.00
C431   C     0.17725   0.71222   0.45140   0.00000  Uiso   1.00
C432   C     0.46814   0.75209   0.42751   0.00000  Uiso   1.00
C433   C     0.53189   0.78319   0.44843   0.00000  Uiso   1.00
C434   C     0.59983   0.72761   0.45573   0.00000  Uiso   1.00
C435   C     0.39089   0.80161   0.37884   0.00000  Uiso   1.00
C436   C     0.38970   0.87433   0.35884   0.00000  Uiso   1.00
C437   C     0.39263   0.86044   0.32516   0.00000  Uiso   1.00
H438   H     0.39863   0.58275   0.38179   0.00000  Uiso   1.00
H439   H     0.25313   0.53753   0.40845   0.00000  Uiso   1.00
H440   H     0.54306   0.54809   0.41141   0.00000  Uiso   1.00
H441   H     0.40089   0.63922   0.32184   0.00000  Uiso   1.00
H442   H     0.09007   0.52428   0.44382   0.00000  Uiso   1.00
H443   H     0.70141   0.54655   0.45006   0.00000  Uiso   1.00
H444   H     0.40163   0.73872   0.26117   0.00000  Uiso   1.00
H445   H     0.38511   0.86698   0.42654   0.00000  Uiso   1.00
H446   H     0.23886   0.83737   0.45565   0.00000  Uiso   1.00
H447   H     0.52879   0.84792   0.45861   0.00000  Uiso   1.00
H448   H     0.38662   0.93905   0.36904   0.00000  Uiso   1.00
H449   H     0.07849   0.76763   0.48213   0.00000  Uiso   1.00
H450   H     0.68984   0.78990   0.48837   0.00000  Uiso   1.00
H451   H     0.39005   0.98207   0.29948   0.00000  Uiso   1.00
O452   O     0.98833   0.62133   0.48133   0.00000  Uiso   1.00
O453   O     0.79039   0.65056   0.48951   0.00000  Uiso   1.00
O454   O     0.39708   0.90268   0.24169   0.00000  Uiso   1.00
N455   N     0.10741   0.58562   0.44884   0.00000  Uiso   1.00
N456   N     0.67897   0.60644   0.45467   0.00000  Uiso   1.00
N457   N     0.39872   0.78610   0.27808   0.00000  Uiso   1.00
N458   N     0.10118   0.71657   0.46945   0.00000  Uiso   1.00
N459   N     0.67274   0.73739   0.47529   0.00000  Uiso   1.00
N460   N     0.39249   0.91705   0.29869   0.00000  Uiso   1.00
C461   C     0.60447   0.35213   0.39204   0.00000  Uiso   1.00
C462   C     0.68540   0.33728   0.41273   0.00000  Uiso   1.00
C463   C     0.74998   0.39774   0.41864   0.00000  Uiso   1.00
C464   C     0.81876   0.37157   0.43821   0.00000  Uiso   1.00
C465   C     0.94380   0.36125   0.46834   0.00000  Uiso   1.00
C466   C     0.52788   0.33155   0.41434   0.00000  Uiso   1.00
C467   C     0.46001   0.38719   0.42161   0.00000  Uiso   1.00
C468   C     0.39618   0.35618   0.44254   0.00000  Uiso   1.00
C469   C     0.27664   0.33694   0.47515   0.00000  Uiso   1.00
C470   C     0.60513   0.28204   0.36567   0.00000  Uiso   1.00
C471   C     0.60219   0.29604   0.33202   0.00000  Uiso   1.00
C472   C     0.60339   0.22335   0.31197   0.00000  Uiso   1.00
C473   C     0.60379   0.12723   0.26902   0.00000  Uiso   1.00
C474   C     0.61179   0.19814   0.41629   0.00000  Uiso   1.00
C475   C     0.68938   0.25364   0.42590   0.00000  Uiso   1.00
C476   C     0.75808   0.22737   0.44546   0.00000  Uiso   1.00
C477   C     0.82275   0.28778   0.45140   0.00000  Uiso   1.00
C478   C     0.53186   0.24791   0.42751   0.00000  Uiso   1.00
C479   C     0.46811   0.21681   0.44843   0.00000  Uiso   1.00
C480   C     0.40017   0.27239   0.45573   0.00000  Uiso   1.00
C481   C     0.60911   0.19839   0.37884   0.00000  Uiso   1.00
C482   C     0.61030   0.12567   0.35884   0.00000  Uiso   1.00
C483   C     0.60737   0.13956   0.32516   0.00000  Uiso   1.00
H484   H     0.60137   0.41725   0.38179   0.00000  Uiso   1.00
H485   H     0.74687   0.46247   0.40845   0.00000  Uiso   1.00
H486   H     0.45694   0.45191   0.41141   0.00000  Uiso   1.00
H487   H     0.59911   0.36078   0.32184   0.00000  Uiso   1.00
H488   H     0.90993   0.47572   0.44382   0.00000  Uiso   1.00
H489   H     0.29859   0.45345   0.45006   0.00000  Uiso   1.00
H490   H     0.59837   0.26128   0.26117   0.00000  Uiso   1.00
H491   H     0.61489   0.13302   0.42654   0.00000  Uiso   1.00
H492   H     0.76114   0.16263   0.45565   0.00000  Uiso   1.00
H493   H     0.47121   0.15208   0.45861   0.00000  Uiso   1.00
H494   H     0.61338   0.06095   0.36904   0.00000  Uiso   1.00
H495   H     0.92151   0.23237   0.48213   0.00000  Uiso   1.00
H496   H     0.31016   0.21010   0.48837   0.00000  Uiso   1.00
H497   H     0.60995   0.01793   0.29948   0.00000  Uiso   1.00
O498   O     0.01167   0.37867   0.48133   0.00000  Uiso   1.00
O499   O     0.20961   0.34944   0.48951   0.00000  Uiso   1.00
O500   O     0.60292   0.09732   0.24169   0.00000  Uiso   1.00
N501   N     0.89259   0.41438   0.44884   0.00000  Uiso   1.00
N502   N     0.32103   0.39356   0.45467   0.00000  Uiso   1.00
N503   N     0.60128   0.21390   0.27808   0.00000  Uiso   1.00
N504   N     0.89882   0.28343   0.46945   0.00000  Uiso   1.00
N505   N     0.32726   0.26261   0.47529   0.00000  Uiso   1.00
N506   N     0.60751   0.08295   0.29869   0.00000  Uiso   1.00
C507   C     0.10447   0.85213   0.89204   0.00000  Uiso   1.00
C508   C     0.18540   0.83728   0.91273   0.00000  Uiso   1.00
C509   C     0.24998   0.89774   0.91864   0.00000  Uiso   1.00
C510   C     0.31876   0.87157   0.93821   0.00000  Uiso   1.00
C511   C     0.44380   0.86125   0.96834   0.00000  Uiso   1.00
C512   C     0.02788   0.83155   0.91434   0.00000  Uiso   1.00
C513   C     0.96001   0.88719   0.92161   0.00000  Uiso   1.00
C514   C     0.89618   0.85618   0.94254   0.00000  Uiso   1.00
C515   C     0.77664   0.83694   0.97515   0.00000  Uiso   1.00
C516   C     0.10513   0.78204   0.86567   0.00000  Uiso   1.00
C517   C     0.10219   0.79604   0.83202   0.00000  Uiso   1.00
C518   C     0.10339   0.72335   0.81197   0.00000  Uiso   1.00
C519   C     0.10379   0.62723   0.76902   0.00000  Uiso   1.00
C520   C     0.11179   0.69814   0.91629   0.00000  Uiso   1.00
C521   C     0.18938   0.75364   0.92590   0.00000  Uiso   1.00
C522   C     0.25808   0.72737   0.94546   0.00000  Uiso   1.00
C523   C     0.32275   0.78778   0.95140   0.00000  Uiso   1.00
C524   C     0.03186   0.74791   0.92751   0.00000  Uiso   1.00
C525   C     0.96811   0.71681   0.94843   0.00000  Uiso   1.00
C526   C     0.90017   0.77239   0.95573   0.00000  Uiso   1.00
C527   C     0.10911   0.69839   0.87884   0.00000  Uiso   1.00
C528   C     0.11030   0.62567   0.85884   0.00000  Uiso   1.00
C529   C     0.10737   0.63956   0.82516   0.00000  Uiso   1.00
H530   H     0.10137   0.91725   0.88179   0.00000  Uiso   1.00
H531   H     0.24687   0.96247   0.90845   0.00000  Uiso   1.00
H532   H     0.95694   0.95191   0.91141   0.00000  Uiso   1.00
H533   H     0.09911   0.86078   0.82184   0.00000  Uiso   1.00
H534   H     0.40993   0.97572   0.94382   0.00000  Uiso   1.00
H535   H     0.79859   0.95345   0.95006   0.00000  Uiso   1.00
H536   H     0.09837   0.76128   0.76117   0.00000  Uiso   1.00
H537   H     0.11489   0.63302   0.92654   0.00000  Uiso   1.00
H538   H     0.26114   0.66263   0.95565   0.00000  Uiso   1.00
H539   H     0.97121   0.65208   0.95861   0.00000  Uiso   1.00
H540   H     0.11338   0.56095   0.86904   0.00000  Uiso   1.00
H541   H     0.42151   0.73237   0.98213   0.00000  Uiso   1.00
H542   H     0.81016   0.71010   0.98837   0.00000  Uiso   1.00
H543   H     0.10995   0.51793   0.79948   0.00000  Uiso   1.00
O544   O     0.51167   0.87867   0.98133   0.00000  Uiso   1.00
O545   O     0.70961   0.84944   0.98951   0.00000  Uiso   1.00
O546   O     0.10292   0.59732   0.74169   0.00000  Uiso   1.00
N547   N     0.39259   0.91438   0.94884   0.00000  Uiso   1.00
N548   N     0.82103   0.89356   0.95467   0.00000  Uiso   1.00
N549   N     0.10128   0.71390   0.77808   0.00000  Uiso   1.00
N550   N     0.39882   0.78343   0.96945   0.00000  Uiso   1.00
N551   N     0.82726   0.76261   0.97529   0.00000  Uiso   1.00
N552   N     0.10751   0.58295   0.79869   0.00000  Uiso   1.00
C553   C     0.35213   0.89553   0.64204   0.00000  Uiso   1.00
C554   C     0.33728   0.81460   0.66273   0.00000  Uiso   1.00
C555   C     0.39774   0.75002   0.66864   0.00000  Uiso   1.00
C556   C     0.37157   0.68124   0.68821   0.00000  Uiso   1.00
C557   C     0.36125   0.55620   0.71834   0.00000  Uiso   1.00
C558   C     0.33155   0.97212   0.66434   0.00000  Uiso   1.00
C559   C     0.38719   0.03999   0.67161   0.00000  Uiso   1.00
C560   C     0.35618   0.10382   0.69254   0.00000  Uiso   1.00
C561   C     0.33694   0.22336   0.72515   0.00000  Uiso   1.00
C562   C     0.28204   0.89487   0.61567   0.00000  Uiso   1.00
C563   C     0.29604   0.89781   0.58202   0.00000  Uiso   1.00
C564   C     0.22335   0.89661   0.56197   0.00000  Uiso   1.00
C565   C     0.12723   0.89621   0.51902   0.00000  Uiso   1.00
C566   C     0.19814   0.88821   0.66629   0.00000  Uiso   1.00
C567   C     0.25364   0.81062   0.67590   0.00000  Uiso   1.00
C568   C     0.22737   0.74192   0.69546   0.00000  Uiso   1.00
C569   C     0.28778   0.67725   0.70140   0.00000  Uiso   1.00
C570   C     0.24791   0.96814   0.67751   0.00000  Uiso   1.00
C571   C     0.21681   0.03189   0.69843   0.00000  Uiso   1.00
C572   C     0.27239   0.09983   0.70573   0.00000  Uiso   1.00
C573   C     0.19839   0.89089   0.62884   0.00000  Uiso   1.00
C574   C     0.12567   0.88970   0.60884   0.00000  Uiso   1.00
C575   C     0.13956   0.89263   0.57516   0.00000  Uiso   1.00
H576   H     0.41725   0.89863   0.63179   0.00000  Uiso   1.00
H577   H     0.46247   0.75313   0.65845   0.00000  Uiso   1.00
H578   H     0.45191   0.04306   0.66141   0.00000  Uiso   1.00
H579   H     0.36078   0.90089   0.57184   0.00000  Uiso   1.00
H580   H     0.47572   0.59007   0.69382   0.00000  Uiso   1.00
H581   H     0.45345   0.20141   0.70006   0.00000  Uiso   1.00
H582   H     0.26128   0.90163   0.51117   0.00000  Uiso   1.00
H583   H     0.13302   0.88511   0.67654   0.00000  Uiso   1.00
H584   H     0.16263   0.73886   0.70565   0.00000  Uiso   1.00
H585   H     0.15208   0.02879   0.70861   0.00000  Uiso   1.00
H586   H     0.06095   0.88662   0.61904   0.00000  Uiso   1.00
H587   H     0.23237   0.57849   0.73213   0.00000  Uiso   1.00
H588   H     0.21010   0.18984   0.73837   0.00000  Uiso   1.00
H589   H     0.01793   0.89005   0.54948   0.00000  Uiso   1.00
O590   O     0.37867   0.48833   0.73133   0.00000  Uiso   1.00
O591   O     0.34944   0.29039   0.73951   0.00000  Uiso   1.00
O592   O     0.09732   0.89708   0.49169   0.00000  Uiso   1.00
N593   N     0.41438   0.60741   0.69884   0.00000  Uiso   1.00
N594   N     0.39356   0.17897   0.70467   0.00000  Uiso   1.00
N595   N     0.21390   0.89872   0.52808   0.00000  Uiso   1.00
N596   N     0.28343   0.60118   0.71945   0.00000  Uiso   1.00
N597   N     0.26261   0.17274   0.72529   0.00000  Uiso   1.00
N598   N     0.08295   0.89249   0.54869   0.00000  Uiso   1.00
C599   C     0.85213   0.39553   0.14204   0.00000  Uiso   1.00
C600   C     0.83728   0.31460   0.16273   0.00000  Uiso   1.00
C601   C     0.89774   0.25002   0.16864   0.00000  Uiso   1.00
C602   C     0.87157   0.18124   0.18821   0.00000  Uiso   1.00
C603   C     0.86125   0.05620   0.21834   0.00000  Uiso   1.00
C604   C     0.83155   0.47212   0.16434   0.00000  Uiso   1.00
C605   C     0.88719   0.53999   0.17161   0.00000  Uiso   1.00
C606   C     0.85618   0.60382   0.19254   0.00000  Uiso   1.00
C607   C     0.83694   0.72336   0.22515   0.00000  Uiso   1.00
C608   C     0.78204   0.39487   0.11567   0.00000  Uiso   1.00
C609   C     0.79604   0.39781   0.08202   0.00000  Uiso   1.00
C610   C     0.72335   0.39661   0.06197   0.00000  Uiso   1.00
C611   C     0.62723   0.39621   0.01902   0.00000  Uiso   1.00
C612   C     0.69814   0.38821   0.16629   0.00000  Uiso   1.00
C613   C     0.75364   0.31062   0.17590   0.00000  Uiso   1.00
C614   C     0.72737   0.24192   0.19546   0.00000  Uiso   1.00
C615   C     0.78778   0.17725   0.20140   0.00000  Uiso   1.00
C616   C     0.74791   0.46814   0.17751   0.00000  Uiso   1.00
C617   C     0.71681   0.53189   0.19843   0.00000  Uiso   1.00
C618   C     0.77239   0.59983   0.20573   0.00000  Uiso   1.00
C619   C     0.69839   0.39089   0.12884   0.00000  Uiso   1.00
C620   C     0.62567   0.38970   0.10884   0.00000  Uiso   1.00
C621   C     0.63956   0.39263   0.07516   0.00000  Uiso   1.00
H622   H     0.91725   0.39863   0.13179   0.00000  Uiso   1.00
H623   H     0.96247   0.25313   0.15845   0.00000  Uiso   1.00
H624   H     0.95191   0.54306   0.16141   0.00000  Uiso   1.00
H625   H     0.86078   0.40089   0.07184   0.00000  Uiso   1.00
H626   H     0.97572   0.09007   0.19382   0.00000  Uiso   1.00
H627   H     0.95345   0.70141   0.20006   0.00000  Uiso   1.00
H628   H     0.76128   0.40163   0.01117   0.00000  Uiso   1.00
H629   H     0.63302   0.38511   0.17654   0.00000  Uiso   1.00
H630   H     0.66263   0.23886   0.20565   0.00000  Uiso   1.00
H631   H     0.65208   0.52879   0.20861   0.00000  Uiso   1.00
H632   H     0.56095   0.38662   0.11904   0.00000  Uiso   1.00
H633   H     0.73237   0.07849   0.23213   0.00000  Uiso   1.00
H634   H     0.71010   0.68984   0.23837   0.00000  Uiso   1.00
H635   H     0.51793   0.39005   0.04948   0.00000  Uiso   1.00
O636   O     0.87867   0.98833   0.23133   0.00000  Uiso   1.00
O637   O     0.84944   0.79039   0.23951   0.00000  Uiso   1.00
O638   O     0.59732   0.39708   0.99169   0.00000  Uiso   1.00
N639   N     0.91438   0.10741   0.19884   0.00000  Uiso   1.00
N640   N     0.89356   0.67897   0.20467   0.00000  Uiso   1.00
N641   N     0.71390   0.39872   0.02808   0.00000  Uiso   1.00
N642   N     0.78343   0.10118   0.21945   0.00000  Uiso   1.00
N643   N     0.76261   0.67274   0.22529   0.00000  Uiso   1.00
N644   N     0.58295   0.39249   0.04869   0.00000  Uiso   1.00
C645   C     0.14787   0.60447   0.14204   0.00000  Uiso   1.00
C646   C     0.16272   0.68540   0.16273   0.00000  Uiso   1.00
C647   C     0.10226   0.74998   0.16864   0.00000  Uiso   1.00
C648   C     0.12843   0.81876   0.18821   0.00000  Uiso   1.00
C649   C     0.13875   0.94380   0.21834   0.00000  Uiso   1.00
C650   C     0.16845   0.52788   0.16434   0.00000  Uiso   1.00
C651   C     0.11281   0.46001   0.17161   0.00000  Uiso   1.00
C652   C     0.14382   0.39618   0.19254   0.00000  Uiso   1.00
C653   C     0.16306   0.27664   0.22515   0.00000  Uiso   1.00
C654   C     0.21796   0.60513   0.11567   0.00000  Uiso   1.00
C655   C     0.20396   0.60219   0.08202   0.00000  Uiso   1.00
C656   C     0.27665   0.60339   0.06197   0.00000  Uiso   1.00
C657   C     0.37277   0.60379   0.01902   0.00000  Uiso   1.00
C658   C     0.30186   0.61179   0.16629   0.00000  Uiso   1.00
C659   C     0.24636   0.68938   0.17590   0.00000  Uiso   1.00
C660   C     0.27263   0.75808   0.19546   0.00000  Uiso   1.00
C661   C     0.21222   0.82275   0.20140   0.00000  Uiso   1.00
C662   C     0.25209   0.53186   0.17751   0.00000  Uiso   1.00
C663   C     0.28319   0.46811   0.19843   0.00000  Uiso   1.00
C664   C     0.22761   0.40017   0.20573   0.00000  Uiso   1.00
C665   C     0.30161   0.60911   0.12884   0.00000  Uiso   1.00
C666   C     0.37433   0.61030   0.10884   0.00000  Uiso   1.00
C667   C     0.36044   0.60737   0.07516   0.00000  Uiso   1.00
H668   H     0.08275   0.60137   0.13179   0.00000  Uiso   1.00
H669   H     0.03753   0.74687   0.15845   0.00000  Uiso   1.00
H670   H     0.04809   0.45694   0.16141   0.00000  Uiso   1.00
H671   H     0.13922   0.59911   0.07184   0.00000  Uiso   1.00
H672   H     0.02428   0.90993   0.19382   0.00000  Uiso   1.00
H673   H     0.04655   0.29859   0.20006   0.00000  Uiso   1.00
H674   H     0.23872   0.59837   0.01117   0.00000  Uiso   1.00
H675   H     0.36698   0.61489   0.17654   0.00000  Uiso   1.00
H676   H     0.33737   0.76114   0.20565   0.00000  Uiso   1.00
H677   H     0.34792   0.47121   0.20861   0.00000  Uiso   1.00
H678   H     0.43905   0.61338   0.11904   0.00000  Uiso   1.00
H679   H     0.26763   0.92151   0.23213   0.00000  Uiso   1.00
H680   H     0.28990   0.31016   0.23837   0.00000  Uiso   1.00
H681   H     0.48207   0.60995   0.04948   0.00000  Uiso   1.00
O682   O     0.12133   0.01167   0.23133   0.00000  Uiso   1.00
O683   O     0.15056   0.20961   0.23951   0.00000  Uiso   1.00
O684   O     0.40268   0.60292   0.99169   0.00000  Uiso   1.00
N685   N     0.08562   0.89259   0.19884   0.00000  Uiso   1.00
N686   N     0.10644   0.32103   0.20467   0.00000  Uiso   1.00
N687   N     0.28610   0.60128   0.02808   0.00000  Uiso   1.00
N688   N     0.21657   0.89882   0.21945   0.00000  Uiso   1.00
N689   N     0.23739   0.32726   0.22529   0.00000  Uiso   1.00
N690   N     0.41705   0.60751   0.04869   0.00000  Uiso   1.00
C691   C     0.64787   0.10447   0.64204   0.00000  Uiso   1.00
C692   C     0.66272   0.18540   0.66273   0.00000  Uiso   1.00
C693   C     0.60226   0.24998   0.66864   0.00000  Uiso   1.00
C694   C     0.62843   0.31876   0.68821   0.00000  Uiso   1.00
C695   C     0.63875   0.44380   0.71834   0.00000  Uiso   1.00
C696   C     0.66845   0.02788   0.66434   0.00000  Uiso   1.00
C697   C     0.61281   0.96001   0.67161   0.00000  Uiso   1.00
C698   C     0.64382   0.89618   0.69254   0.00000  Uiso   1.00
C699   C     0.66306   0.77664   0.72515   0.00000  Uiso   1.00
C700   C     0.71796   0.10513   0.61567   0.00000  Uiso   1.00
C701   C     0.70396   0.10219   0.58202   0.00000  Uiso   1.00
C702   C     0.77665   0.10339   0.56197   0.00000  Uiso   1.00
C703   C     0.87277   0.10379   0.51902   0.00000  Uiso   1.00
C704   C     0.80186   0.11179   0.66629   0.00000  Uiso   1.00
C705   C     0.74636   0.18938   0.67590   0.00000  Uiso   1.00
C706   C     0.77263   0.25808   0.69546   0.00000  Uiso   1.00
C707   C     0.71222   0.32275   0.70140   0.00000  Uiso   1.00
C708   C     0.75209   0.03186   0.67751   0.00000  Uiso   1.00
C709   C     0.78319   0.96811   0.69843   0.00000  Uiso   1.00
C710   C     0.72761   0.90017   0.70573   0.00000  Uiso   1.00
C711   C     0.80161   0.10911   0.62884   0.00000  Uiso   1.00
C712   C     0.87433   0.11030   0.60884   0.00000  Uiso   1.00
C713   C     0.86044   0.10737   0.57516   0.00000  Uiso   1.00
H714   H     0.58275   0.10137   0.63179   0.00000  Uiso   1.00
H715   H     0.53753   0.24687   0.65845   0.00000  Uiso   1.00
H716   H     0.54809   0.95694   0.66141   0.00000  Uiso   1.00
H717   H     0.63922   0.09911   0.57184   0.00000  Uiso   1.00
H718   H     0.52428   0.40993   0.69382   0.00000  Uiso   1.00
H719   H     0.54655   0.79859   0.70006   0.00000  Uiso   1.00
H720   H     0.73872   0.09837   0.51117   0.00000  Uiso   1.00
H721   H     0.86698   0.11489   0.67654   0.00000  Uiso   1.00
H722   H     0.83737   0.26114   0.70565   0.00000  Uiso   1.00
H723   H     0.84792   0.97121   0.70861   0.00000  Uiso   1.00
H724   H     0.93905   0.11338   0.61904   0.00000  Uiso   1.00
H725   H     0.76763   0.42151   0.73213   0.00000  Uiso   1.00
H726   H     0.78990   0.81016   0.73837   0.00000  Uiso   1.00
H727   H     0.98207   0.10995   0.54948   0.00000  Uiso   1.00
O728   O     0.62133   0.51167   0.73133   0.00000  Uiso   1.00
O729   O     0.65056   0.70961   0.73951   0.00000  Uiso   1.00
O730   O     0.90268   0.10292   0.49169   0.00000  Uiso   1.00
N731   N     0.58562   0.39259   0.69884   0.00000  Uiso   1.00
N732   N     0.60644   0.82103   0.70467   0.00000  Uiso   1.00
N733   N     0.78610   0.10128   0.52808   0.00000  Uiso   1.00
N734   N     0.71657   0.39882   0.71945   0.00000  Uiso   1.00
N735   N     0.73739   0.82726   0.72529   0.00000  Uiso   1.00
N736   N     0.91705   0.10751   0.54869   0.00000  Uiso   1.00
