data_job_01718
_audit_creation_date              2018-12-19
_audit_creation_method            'Materials Studio'
_symmetry_space_group_name_H-M    'P1'
_symmetry_Int_Tables_number       1
_symmetry_cell_setting            triclinic
loop_
_symmetry_equiv_pos_as_xyz
  x,y,z
_cell_length_a                    23.7724
_cell_length_b                    18.0816
_cell_length_c                    31.0675
_cell_angle_alpha                 90.0000
_cell_angle_beta                  90.0000
_cell_angle_gamma                 90.0000
loop_
_atom_site_label
_atom_site_type_symbol
_atom_site_fract_x
_atom_site_fract_y
_atom_site_fract_z
_atom_site_U_iso_or_equiv
_atom_site_adp_type
_atom_site_occupancy
C1     C     0.63945   0.61119   0.06263   0.00000  Uiso   1.00
C2     C     0.69609   0.58788   0.08126   0.00000  Uiso   1.00
C3     C     0.74832   0.61295   0.06764   0.00000  Uiso   1.00
C4     C     0.79514   0.58495   0.08880   0.00000  Uiso   1.00
C5     C     0.88389   0.55653   0.11260   0.00000  Uiso   1.00
C6     C     0.61031   0.54001   0.04863   0.00000  Uiso   1.00
C7     C     0.59040   0.52483   0.00757   0.00000  Uiso   1.00
C8     C     0.56501   0.45653   0.00127   0.00000  Uiso   1.00
C9     C     0.52055   0.35381   0.97441   0.00000  Uiso   1.00
C10    C     0.60529   0.64104   0.10037   0.00000  Uiso   1.00
C11    C     0.58114   0.71079   0.10281   0.00000  Uiso   1.00
C12    C     0.55151   0.72755   0.14007   0.00000  Uiso   1.00
C13    C     0.49925   0.78169   0.19355   0.00000  Uiso   1.00
C14    C     0.62973   0.51689   0.12444   0.00000  Uiso   1.00
C15    C     0.69081   0.53667   0.11483   0.00000  Uiso   1.00
C16    C     0.73757   0.50862   0.13602   0.00000  Uiso   1.00
C17    C     0.78985   0.53364   0.12243   0.00000  Uiso   1.00
C18    C     0.60503   0.48879   0.08220   0.00000  Uiso   1.00
C19    C     0.57965   0.42051   0.07596   0.00000  Uiso   1.00
C20    C     0.55972   0.40522   0.03490   0.00000  Uiso   1.00
C21    C     0.60001   0.58982   0.13394   0.00000  Uiso   1.00
C22    C     0.57040   0.60647   0.17120   0.00000  Uiso   1.00
C23    C     0.54622   0.67624   0.17370   0.00000  Uiso   1.00
H24    H     0.64355   0.65106   0.03649   0.00000  Uiso   1.00
H25    H     0.75238   0.65258   0.04165   0.00000  Uiso   1.00
H26    H     0.59449   0.56448   0.98160   0.00000  Uiso   1.00
H27    H     0.58524   0.75041   0.07683   0.00000  Uiso   1.00
H28    H     0.87071   0.63166   0.06216   0.00000  Uiso   1.00
H29    H     0.53777   0.44591   0.93554   0.00000  Uiso   1.00
H30    H     0.51826   0.83799   0.13635   0.00000  Uiso   1.00
H31    H     0.62562   0.47702   0.15058   0.00000  Uiso   1.00
H32    H     0.73347   0.46899   0.16200   0.00000  Uiso   1.00
H33    H     0.57558   0.38089   0.10194   0.00000  Uiso   1.00
H34    H     0.56632   0.56682   0.19717   0.00000  Uiso   1.00
H35    H     0.85536   0.48265   0.15984   0.00000  Uiso   1.00
H36    H     0.52242   0.29690   0.03322   0.00000  Uiso   1.00
H37    H     0.50291   0.68898   0.23403   0.00000  Uiso   1.00
O38    O     0.93431   0.55499   0.11645   0.00000  Uiso   1.00
O39    O     0.49749   0.31130   0.95032   0.00000  Uiso   1.00
O40    O     0.47189   0.82570   0.21378   0.00000  Uiso   1.00
N41    N     0.85230   0.59770   0.08359   0.00000  Uiso   1.00
N42    N     0.54103   0.42403   0.96520   0.00000  Uiso   1.00
N43    N     0.52277   0.79059   0.15294   0.00000  Uiso   1.00
N44    N     0.84404   0.51752   0.13615   0.00000  Uiso   1.00
N45    N     0.53277   0.34385   0.01776   0.00000  Uiso   1.00
N46    N     0.51451   0.71041   0.20550   0.00000  Uiso   1.00
C47    C     0.63306   0.90867   0.43922   0.00000  Uiso   1.00
C48    C     0.68927   0.93288   0.42022   0.00000  Uiso   1.00
C49    C     0.74192   0.90974   0.43402   0.00000  Uiso   1.00
C50    C     0.78823   0.93829   0.41245   0.00000  Uiso   1.00
C51    C     0.87644   0.96832   0.38815   0.00000  Uiso   1.00
C52    C     0.60283   0.97950   0.45245   0.00000  Uiso   1.00
C53    C     0.58281   0.99553   0.49337   0.00000  Uiso   1.00
C54    C     0.55635   0.06332   0.49892   0.00000  Uiso   1.00
C55    C     0.51033   0.16569   0.52467   0.00000  Uiso   1.00
C56    C     0.59928   0.87660   0.40191   0.00000  Uiso   1.00
C57    C     0.57625   0.80612   0.40032   0.00000  Uiso   1.00
C58    C     0.54679   0.78728   0.36332   0.00000  Uiso   1.00
C59    C     0.49526   0.72988   0.31058   0.00000  Uiso   1.00
C60    C     0.62167   0.00054   0.37635   0.00000  Uiso   1.00
C61    C     0.68308   0.98278   0.38607   0.00000  Uiso   1.00
C62    C     0.72932   0.01137   0.36446   0.00000  Uiso   1.00
C63    C     0.78203   0.98827   0.37824   0.00000  Uiso   1.00
C64    C     0.59665   0.02939   0.41831   0.00000  Uiso   1.00
C65    C     0.57020   0.09717   0.42380   0.00000  Uiso   1.00
C66    C     0.55015   0.11331   0.46471   0.00000  Uiso   1.00
C67    C     0.59309   0.92649   0.36776   0.00000  Uiso   1.00
C68    C     0.56365   0.90776   0.33076   0.00000  Uiso   1.00
C69    C     0.54059   0.83726   0.32911   0.00000  Uiso   1.00
H70    H     0.63788   0.86983   0.46581   0.00000  Uiso   1.00
H71    H     0.74669   0.87113   0.46046   0.00000  Uiso   1.00
H72    H     0.58760   0.95691   0.51978   0.00000  Uiso   1.00
H73    H     0.58105   0.76752   0.42675   0.00000  Uiso   1.00
H74    H     0.86460   0.89459   0.43947   0.00000  Uiso   1.00
H75    H     0.52913   0.07545   0.56457   0.00000  Uiso   1.00
H76    H     0.51531   0.67610   0.36839   0.00000  Uiso   1.00
H77    H     0.61685   0.03939   0.34976   0.00000  Uiso   1.00
H78    H     0.72452   0.04998   0.33804   0.00000  Uiso   1.00
H79    H     0.56542   0.13576   0.39737   0.00000  Uiso   1.00
H80    H     0.55887   0.94638   0.30434   0.00000  Uiso   1.00
H81    H     0.84661   0.03976   0.34012   0.00000  Uiso   1.00
H82    H     0.51113   0.22062   0.46521   0.00000  Uiso   1.00
H83    H     0.49731   0.82127   0.26903   0.00000  Uiso   1.00
O84    O     0.92681   0.97111   0.38419   0.00000  Uiso   1.00
O85    O     0.48667   0.20838   0.54830   0.00000  Uiso   1.00
O86    O     0.46855   0.68444   0.29092   0.00000  Uiso   1.00
N87    N     0.84559   0.92729   0.41769   0.00000  Uiso   1.00
N88    N     0.53195   0.09639   0.53465   0.00000  Uiso   1.00
N89    N     0.51902   0.72303   0.35124   0.00000  Uiso   1.00
N90    N     0.83591   0.00540   0.36423   0.00000  Uiso   1.00
N91    N     0.52227   0.17450   0.48119   0.00000  Uiso   1.00
N92    N     0.50934   0.80115   0.29778   0.00000  Uiso   1.00
C93    C     0.13945   0.11119   0.06263   0.00000  Uiso   1.00
C94    C     0.19609   0.08788   0.08126   0.00000  Uiso   1.00
C95    C     0.24832   0.11295   0.06764   0.00000  Uiso   1.00
C96    C     0.29514   0.08495   0.08880   0.00000  Uiso   1.00
C97    C     0.38389   0.05653   0.11260   0.00000  Uiso   1.00
C98    C     0.11031   0.04001   0.04863   0.00000  Uiso   1.00
C99    C     0.09040   0.02483   0.00757   0.00000  Uiso   1.00
C100   C     0.06501   0.95653   0.00127   0.00000  Uiso   1.00
C101   C     0.02055   0.85381   0.97441   0.00000  Uiso   1.00
C102   C     0.10529   0.14104   0.10037   0.00000  Uiso   1.00
C103   C     0.08114   0.21079   0.10281   0.00000  Uiso   1.00
C104   C     0.05151   0.22755   0.14007   0.00000  Uiso   1.00
C105   C     0.99925   0.28169   0.19355   0.00000  Uiso   1.00
C106   C     0.12973   0.01689   0.12444   0.00000  Uiso   1.00
C107   C     0.19081   0.03667   0.11483   0.00000  Uiso   1.00
C108   C     0.23757   0.00862   0.13602   0.00000  Uiso   1.00
C109   C     0.28985   0.03364   0.12243   0.00000  Uiso   1.00
C110   C     0.10503   0.98879   0.08220   0.00000  Uiso   1.00
C111   C     0.07965   0.92051   0.07596   0.00000  Uiso   1.00
C112   C     0.05972   0.90522   0.03490   0.00000  Uiso   1.00
C113   C     0.10001   0.08982   0.13394   0.00000  Uiso   1.00
C114   C     0.07040   0.10647   0.17120   0.00000  Uiso   1.00
C115   C     0.04622   0.17624   0.17370   0.00000  Uiso   1.00
H116   H     0.14355   0.15106   0.03649   0.00000  Uiso   1.00
H117   H     0.25238   0.15258   0.04165   0.00000  Uiso   1.00
H118   H     0.09449   0.06448   0.98160   0.00000  Uiso   1.00
H119   H     0.08524   0.25041   0.07683   0.00000  Uiso   1.00
H120   H     0.37071   0.13166   0.06216   0.00000  Uiso   1.00
H121   H     0.03777   0.94591   0.93554   0.00000  Uiso   1.00
H122   H     0.01826   0.33799   0.13635   0.00000  Uiso   1.00
H123   H     0.12562   0.97702   0.15058   0.00000  Uiso   1.00
H124   H     0.23347   0.96899   0.16200   0.00000  Uiso   1.00
H125   H     0.07558   0.88089   0.10194   0.00000  Uiso   1.00
H126   H     0.06632   0.06682   0.19717   0.00000  Uiso   1.00
H127   H     0.35536   0.98265   0.15984   0.00000  Uiso   1.00
H128   H     0.02242   0.79690   0.03322   0.00000  Uiso   1.00
H129   H     0.00291   0.18898   0.23403   0.00000  Uiso   1.00
O130   O     0.43431   0.05499   0.11645   0.00000  Uiso   1.00
O131   O     0.99749   0.81130   0.95032   0.00000  Uiso   1.00
O132   O     0.97189   0.32570   0.21378   0.00000  Uiso   1.00
N133   N     0.35230   0.09770   0.08359   0.00000  Uiso   1.00
N134   N     0.04103   0.92403   0.96520   0.00000  Uiso   1.00
N135   N     0.02277   0.29059   0.15294   0.00000  Uiso   1.00
N136   N     0.34404   0.01752   0.13615   0.00000  Uiso   1.00
N137   N     0.03277   0.84385   0.01776   0.00000  Uiso   1.00
N138   N     0.01451   0.21041   0.20550   0.00000  Uiso   1.00
C139   C     0.13306   0.40867   0.43922   0.00000  Uiso   1.00
C140   C     0.18927   0.43288   0.42022   0.00000  Uiso   1.00
C141   C     0.24192   0.40974   0.43402   0.00000  Uiso   1.00
C142   C     0.28823   0.43829   0.41245   0.00000  Uiso   1.00
C143   C     0.37644   0.46832   0.38815   0.00000  Uiso   1.00
C144   C     0.10283   0.47950   0.45245   0.00000  Uiso   1.00
C145   C     0.08281   0.49553   0.49337   0.00000  Uiso   1.00
C146   C     0.05635   0.56332   0.49892   0.00000  Uiso   1.00
C147   C     0.01033   0.66569   0.52467   0.00000  Uiso   1.00
C148   C     0.09928   0.37660   0.40191   0.00000  Uiso   1.00
C149   C     0.07625   0.30612   0.40032   0.00000  Uiso   1.00
C150   C     0.04679   0.28728   0.36332   0.00000  Uiso   1.00
C151   C     0.99526   0.22988   0.31058   0.00000  Uiso   1.00
C152   C     0.12167   0.50054   0.37635   0.00000  Uiso   1.00
C153   C     0.18308   0.48278   0.38607   0.00000  Uiso   1.00
C154   C     0.22932   0.51137   0.36446   0.00000  Uiso   1.00
C155   C     0.28203   0.48827   0.37824   0.00000  Uiso   1.00
C156   C     0.09665   0.52939   0.41831   0.00000  Uiso   1.00
C157   C     0.07020   0.59717   0.42380   0.00000  Uiso   1.00
C158   C     0.05015   0.61331   0.46471   0.00000  Uiso   1.00
C159   C     0.09309   0.42649   0.36776   0.00000  Uiso   1.00
C160   C     0.06365   0.40776   0.33076   0.00000  Uiso   1.00
C161   C     0.04059   0.33726   0.32911   0.00000  Uiso   1.00
H162   H     0.13788   0.36983   0.46581   0.00000  Uiso   1.00
H163   H     0.24669   0.37113   0.46046   0.00000  Uiso   1.00
H164   H     0.08760   0.45691   0.51978   0.00000  Uiso   1.00
H165   H     0.08105   0.26752   0.42675   0.00000  Uiso   1.00
H166   H     0.36460   0.39459   0.43947   0.00000  Uiso   1.00
H167   H     0.02913   0.57545   0.56457   0.00000  Uiso   1.00
H168   H     0.01531   0.17610   0.36839   0.00000  Uiso   1.00
H169   H     0.11685   0.53939   0.34976   0.00000  Uiso   1.00
H170   H     0.22452   0.54998   0.33804   0.00000  Uiso   1.00
H171   H     0.06542   0.63576   0.39737   0.00000  Uiso   1.00
H172   H     0.05887   0.44638   0.30434   0.00000  Uiso   1.00
H173   H     0.34661   0.53976   0.34012   0.00000  Uiso   1.00
H174   H     0.01113   0.72062   0.46521   0.00000  Uiso   1.00
H175   H     0.99731   0.32127   0.26903   0.00000  Uiso   1.00
O176   O     0.42681   0.47111   0.38419   0.00000  Uiso   1.00
O177   O     0.98667   0.70838   0.54830   0.00000  Uiso   1.00
O178   O     0.96855   0.18444   0.29092   0.00000  Uiso   1.00
N179   N     0.34559   0.42729   0.41769   0.00000  Uiso   1.00
N180   N     0.03195   0.59639   0.53465   0.00000  Uiso   1.00
N181   N     0.01902   0.22303   0.35124   0.00000  Uiso   1.00
N182   N     0.33591   0.50540   0.36423   0.00000  Uiso   1.00
N183   N     0.02227   0.67450   0.48119   0.00000  Uiso   1.00
N184   N     0.00934   0.30115   0.29778   0.00000  Uiso   1.00
C185   C     0.36055   0.38881   0.06263   0.00000  Uiso   1.00
C186   C     0.30391   0.41212   0.08126   0.00000  Uiso   1.00
C187   C     0.25168   0.38705   0.06764   0.00000  Uiso   1.00
C188   C     0.20486   0.41505   0.08880   0.00000  Uiso   1.00
C189   C     0.11611   0.44347   0.11260   0.00000  Uiso   1.00
C190   C     0.38969   0.45999   0.04863   0.00000  Uiso   1.00
C191   C     0.40960   0.47517   0.00757   0.00000  Uiso   1.00
C192   C     0.43499   0.54347   0.00127   0.00000  Uiso   1.00
C193   C     0.47945   0.64619   0.97441   0.00000  Uiso   1.00
C194   C     0.39471   0.35896   0.10037   0.00000  Uiso   1.00
C195   C     0.41886   0.28921   0.10281   0.00000  Uiso   1.00
C196   C     0.44849   0.27245   0.14007   0.00000  Uiso   1.00
C197   C     0.50075   0.21831   0.19355   0.00000  Uiso   1.00
C198   C     0.37027   0.48311   0.12444   0.00000  Uiso   1.00
C199   C     0.30919   0.46333   0.11483   0.00000  Uiso   1.00
C200   C     0.26243   0.49138   0.13602   0.00000  Uiso   1.00
C201   C     0.21015   0.46636   0.12243   0.00000  Uiso   1.00
C202   C     0.39497   0.51121   0.08220   0.00000  Uiso   1.00
C203   C     0.42035   0.57949   0.07596   0.00000  Uiso   1.00
C204   C     0.44028   0.59478   0.03490   0.00000  Uiso   1.00
C205   C     0.39999   0.41018   0.13394   0.00000  Uiso   1.00
C206   C     0.42960   0.39353   0.17120   0.00000  Uiso   1.00
C207   C     0.45378   0.32376   0.17370   0.00000  Uiso   1.00
H208   H     0.35645   0.34894   0.03649   0.00000  Uiso   1.00
H209   H     0.24762   0.34742   0.04165   0.00000  Uiso   1.00
H210   H     0.40551   0.43552   0.98160   0.00000  Uiso   1.00
H211   H     0.41476   0.24959   0.07683   0.00000  Uiso   1.00
H212   H     0.12929   0.36834   0.06216   0.00000  Uiso   1.00
H213   H     0.46223   0.55409   0.93554   0.00000  Uiso   1.00
H214   H     0.48174   0.16201   0.13635   0.00000  Uiso   1.00
H215   H     0.37438   0.52298   0.15058   0.00000  Uiso   1.00
H216   H     0.26653   0.53101   0.16200   0.00000  Uiso   1.00
H217   H     0.42442   0.61911   0.10194   0.00000  Uiso   1.00
H218   H     0.43368   0.43318   0.19717   0.00000  Uiso   1.00
H219   H     0.14464   0.51735   0.15984   0.00000  Uiso   1.00
H220   H     0.47758   0.70310   0.03322   0.00000  Uiso   1.00
H221   H     0.49709   0.31102   0.23403   0.00000  Uiso   1.00
O222   O     0.06569   0.44501   0.11645   0.00000  Uiso   1.00
O223   O     0.50251   0.68870   0.95032   0.00000  Uiso   1.00
O224   O     0.52811   0.17430   0.21378   0.00000  Uiso   1.00
N225   N     0.14770   0.40230   0.08359   0.00000  Uiso   1.00
N226   N     0.45897   0.57597   0.96520   0.00000  Uiso   1.00
N227   N     0.47723   0.20941   0.15294   0.00000  Uiso   1.00
N228   N     0.15596   0.48248   0.13615   0.00000  Uiso   1.00
N229   N     0.46723   0.65615   0.01776   0.00000  Uiso   1.00
N230   N     0.48549   0.28959   0.20550   0.00000  Uiso   1.00
C231   C     0.36694   0.09133   0.43922   0.00000  Uiso   1.00
C232   C     0.31073   0.06712   0.42022   0.00000  Uiso   1.00
C233   C     0.25808   0.09026   0.43402   0.00000  Uiso   1.00
C234   C     0.21177   0.06171   0.41245   0.00000  Uiso   1.00
C235   C     0.12356   0.03168   0.38815   0.00000  Uiso   1.00
C236   C     0.39717   0.02050   0.45245   0.00000  Uiso   1.00
C237   C     0.41719   0.00447   0.49337   0.00000  Uiso   1.00
C238   C     0.44365   0.93668   0.49892   0.00000  Uiso   1.00
C239   C     0.48967   0.83431   0.52467   0.00000  Uiso   1.00
C240   C     0.40072   0.12340   0.40191   0.00000  Uiso   1.00
C241   C     0.42375   0.19388   0.40032   0.00000  Uiso   1.00
C242   C     0.45321   0.21272   0.36332   0.00000  Uiso   1.00
C243   C     0.50474   0.27012   0.31058   0.00000  Uiso   1.00
C244   C     0.37833   0.99946   0.37635   0.00000  Uiso   1.00
C245   C     0.31692   0.01722   0.38607   0.00000  Uiso   1.00
C246   C     0.27068   0.98863   0.36446   0.00000  Uiso   1.00
C247   C     0.21797   0.01173   0.37824   0.00000  Uiso   1.00
C248   C     0.40335   0.97061   0.41831   0.00000  Uiso   1.00
C249   C     0.42980   0.90283   0.42380   0.00000  Uiso   1.00
C250   C     0.44985   0.88669   0.46471   0.00000  Uiso   1.00
C251   C     0.40691   0.07351   0.36776   0.00000  Uiso   1.00
C252   C     0.43635   0.09224   0.33076   0.00000  Uiso   1.00
C253   C     0.45941   0.16274   0.32911   0.00000  Uiso   1.00
H254   H     0.36212   0.13017   0.46581   0.00000  Uiso   1.00
H255   H     0.25331   0.12887   0.46046   0.00000  Uiso   1.00
H256   H     0.41240   0.04309   0.51978   0.00000  Uiso   1.00
H257   H     0.41895   0.23248   0.42675   0.00000  Uiso   1.00
H258   H     0.13540   0.10541   0.43947   0.00000  Uiso   1.00
H259   H     0.47087   0.92455   0.56457   0.00000  Uiso   1.00
H260   H     0.48469   0.32390   0.36839   0.00000  Uiso   1.00
H261   H     0.38315   0.96061   0.34976   0.00000  Uiso   1.00
H262   H     0.27548   0.95002   0.33804   0.00000  Uiso   1.00
H263   H     0.43458   0.86424   0.39737   0.00000  Uiso   1.00
H264   H     0.44113   0.05362   0.30434   0.00000  Uiso   1.00
H265   H     0.15339   0.96024   0.34012   0.00000  Uiso   1.00
H266   H     0.48887   0.77938   0.46521   0.00000  Uiso   1.00
H267   H     0.50269   0.17873   0.26903   0.00000  Uiso   1.00
O268   O     0.07319   0.02889   0.38419   0.00000  Uiso   1.00
O269   O     0.51333   0.79162   0.54830   0.00000  Uiso   1.00
O270   O     0.53145   0.31556   0.29092   0.00000  Uiso   1.00
N271   N     0.15441   0.07271   0.41769   0.00000  Uiso   1.00
N272   N     0.46805   0.90361   0.53465   0.00000  Uiso   1.00
N273   N     0.48098   0.27697   0.35124   0.00000  Uiso   1.00
N274   N     0.16409   0.99460   0.36423   0.00000  Uiso   1.00
N275   N     0.47773   0.82550   0.48119   0.00000  Uiso   1.00
N276   N     0.49066   0.19885   0.29778   0.00000  Uiso   1.00
C277   C     0.86055   0.88881   0.06263   0.00000  Uiso   1.00
C278   C     0.80391   0.91212   0.08126   0.00000  Uiso   1.00
C279   C     0.75168   0.88705   0.06764   0.00000  Uiso   1.00
C280   C     0.70486   0.91505   0.08880   0.00000  Uiso   1.00
C281   C     0.61611   0.94347   0.11260   0.00000  Uiso   1.00
C282   C     0.88969   0.95999   0.04863   0.00000  Uiso   1.00
C283   C     0.90960   0.97517   0.00757   0.00000  Uiso   1.00
C284   C     0.93499   0.04347   0.00127   0.00000  Uiso   1.00
C285   C     0.97945   0.14619   0.97441   0.00000  Uiso   1.00
C286   C     0.89471   0.85896   0.10037   0.00000  Uiso   1.00
C287   C     0.91886   0.78921   0.10281   0.00000  Uiso   1.00
C288   C     0.94849   0.77245   0.14007   0.00000  Uiso   1.00
C289   C     0.00075   0.71831   0.19355   0.00000  Uiso   1.00
C290   C     0.87027   0.98311   0.12444   0.00000  Uiso   1.00
C291   C     0.80919   0.96333   0.11483   0.00000  Uiso   1.00
C292   C     0.76243   0.99138   0.13602   0.00000  Uiso   1.00
C293   C     0.71015   0.96636   0.12243   0.00000  Uiso   1.00
C294   C     0.89497   0.01121   0.08220   0.00000  Uiso   1.00
C295   C     0.92035   0.07949   0.07596   0.00000  Uiso   1.00
C296   C     0.94028   0.09478   0.03490   0.00000  Uiso   1.00
C297   C     0.89999   0.91018   0.13394   0.00000  Uiso   1.00
C298   C     0.92960   0.89353   0.17120   0.00000  Uiso   1.00
C299   C     0.95378   0.82376   0.17370   0.00000  Uiso   1.00
H300   H     0.85645   0.84894   0.03649   0.00000  Uiso   1.00
H301   H     0.74762   0.84742   0.04165   0.00000  Uiso   1.00
H302   H     0.90551   0.93552   0.98160   0.00000  Uiso   1.00
H303   H     0.91476   0.74959   0.07683   0.00000  Uiso   1.00
H304   H     0.62929   0.86834   0.06216   0.00000  Uiso   1.00
H305   H     0.96223   0.05409   0.93554   0.00000  Uiso   1.00
H306   H     0.98174   0.66201   0.13635   0.00000  Uiso   1.00
H307   H     0.87438   0.02298   0.15058   0.00000  Uiso   1.00
H308   H     0.76653   0.03101   0.16200   0.00000  Uiso   1.00
H309   H     0.92442   0.11911   0.10194   0.00000  Uiso   1.00
H310   H     0.93368   0.93318   0.19717   0.00000  Uiso   1.00
H311   H     0.64464   0.01735   0.15984   0.00000  Uiso   1.00
H312   H     0.97758   0.20310   0.03322   0.00000  Uiso   1.00
H313   H     0.99709   0.81102   0.23403   0.00000  Uiso   1.00
O314   O     0.56569   0.94501   0.11645   0.00000  Uiso   1.00
O315   O     0.00251   0.18870   0.95032   0.00000  Uiso   1.00
O316   O     0.02811   0.67430   0.21378   0.00000  Uiso   1.00
N317   N     0.64770   0.90230   0.08359   0.00000  Uiso   1.00
N318   N     0.95897   0.07597   0.96520   0.00000  Uiso   1.00
N319   N     0.97723   0.70941   0.15294   0.00000  Uiso   1.00
N320   N     0.65596   0.98248   0.13615   0.00000  Uiso   1.00
N321   N     0.96723   0.15615   0.01776   0.00000  Uiso   1.00
N322   N     0.98549   0.78959   0.20550   0.00000  Uiso   1.00
C323   C     0.86694   0.59133   0.43922   0.00000  Uiso   1.00
C324   C     0.81073   0.56712   0.42022   0.00000  Uiso   1.00
C325   C     0.75808   0.59026   0.43402   0.00000  Uiso   1.00
C326   C     0.71177   0.56171   0.41245   0.00000  Uiso   1.00
C327   C     0.62356   0.53168   0.38815   0.00000  Uiso   1.00
C328   C     0.89717   0.52050   0.45245   0.00000  Uiso   1.00
C329   C     0.91719   0.50447   0.49337   0.00000  Uiso   1.00
C330   C     0.94365   0.43668   0.49892   0.00000  Uiso   1.00
C331   C     0.98967   0.33431   0.52467   0.00000  Uiso   1.00
C332   C     0.90072   0.62340   0.40191   0.00000  Uiso   1.00
C333   C     0.92375   0.69388   0.40032   0.00000  Uiso   1.00
C334   C     0.95321   0.71272   0.36332   0.00000  Uiso   1.00
C335   C     0.00474   0.77012   0.31058   0.00000  Uiso   1.00
C336   C     0.87833   0.49946   0.37635   0.00000  Uiso   1.00
C337   C     0.81692   0.51722   0.38607   0.00000  Uiso   1.00
C338   C     0.77068   0.48863   0.36446   0.00000  Uiso   1.00
C339   C     0.71797   0.51173   0.37824   0.00000  Uiso   1.00
C340   C     0.90335   0.47061   0.41831   0.00000  Uiso   1.00
C341   C     0.92980   0.40283   0.42380   0.00000  Uiso   1.00
C342   C     0.94985   0.38669   0.46471   0.00000  Uiso   1.00
C343   C     0.90691   0.57351   0.36776   0.00000  Uiso   1.00
C344   C     0.93635   0.59224   0.33076   0.00000  Uiso   1.00
C345   C     0.95941   0.66274   0.32911   0.00000  Uiso   1.00
H346   H     0.86212   0.63017   0.46581   0.00000  Uiso   1.00
H347   H     0.75331   0.62887   0.46046   0.00000  Uiso   1.00
H348   H     0.91240   0.54309   0.51978   0.00000  Uiso   1.00
H349   H     0.91895   0.73248   0.42675   0.00000  Uiso   1.00
H350   H     0.63540   0.60541   0.43947   0.00000  Uiso   1.00
H351   H     0.97087   0.42455   0.56457   0.00000  Uiso   1.00
H352   H     0.98469   0.82390   0.36839   0.00000  Uiso   1.00
H353   H     0.88315   0.46061   0.34976   0.00000  Uiso   1.00
H354   H     0.77548   0.45002   0.33804   0.00000  Uiso   1.00
H355   H     0.93458   0.36424   0.39737   0.00000  Uiso   1.00
H356   H     0.94113   0.55362   0.30434   0.00000  Uiso   1.00
H357   H     0.65339   0.46024   0.34012   0.00000  Uiso   1.00
H358   H     0.98887   0.27938   0.46521   0.00000  Uiso   1.00
H359   H     0.00269   0.67873   0.26903   0.00000  Uiso   1.00
O360   O     0.57319   0.52889   0.38419   0.00000  Uiso   1.00
O361   O     0.01333   0.29162   0.54830   0.00000  Uiso   1.00
O362   O     0.03145   0.81556   0.29092   0.00000  Uiso   1.00
N363   N     0.65441   0.57271   0.41769   0.00000  Uiso   1.00
N364   N     0.96805   0.40361   0.53465   0.00000  Uiso   1.00
N365   N     0.98098   0.77697   0.35124   0.00000  Uiso   1.00
N366   N     0.66409   0.49460   0.36423   0.00000  Uiso   1.00
N367   N     0.97773   0.32550   0.48119   0.00000  Uiso   1.00
N368   N     0.99066   0.69885   0.29778   0.00000  Uiso   1.00
C369   C     0.63945   0.38881   0.56263   0.00000  Uiso   1.00
C370   C     0.69609   0.41212   0.58126   0.00000  Uiso   1.00
C371   C     0.74832   0.38705   0.56764   0.00000  Uiso   1.00
C372   C     0.79514   0.41505   0.58880   0.00000  Uiso   1.00
C373   C     0.88389   0.44347   0.61260   0.00000  Uiso   1.00
C374   C     0.61031   0.45999   0.54863   0.00000  Uiso   1.00
C375   C     0.59040   0.47517   0.50757   0.00000  Uiso   1.00
C376   C     0.56501   0.54347   0.50127   0.00000  Uiso   1.00
C377   C     0.52055   0.64619   0.47441   0.00000  Uiso   1.00
C378   C     0.60529   0.35896   0.60037   0.00000  Uiso   1.00
C379   C     0.58114   0.28921   0.60281   0.00000  Uiso   1.00
C380   C     0.55151   0.27245   0.64007   0.00000  Uiso   1.00
C381   C     0.49925   0.21831   0.69355   0.00000  Uiso   1.00
C382   C     0.62973   0.48311   0.62444   0.00000  Uiso   1.00
C383   C     0.69081   0.46333   0.61483   0.00000  Uiso   1.00
C384   C     0.73757   0.49138   0.63602   0.00000  Uiso   1.00
C385   C     0.78985   0.46636   0.62243   0.00000  Uiso   1.00
C386   C     0.60503   0.51121   0.58220   0.00000  Uiso   1.00
C387   C     0.57965   0.57949   0.57596   0.00000  Uiso   1.00
C388   C     0.55972   0.59478   0.53490   0.00000  Uiso   1.00
C389   C     0.60001   0.41018   0.63394   0.00000  Uiso   1.00
C390   C     0.57040   0.39353   0.67120   0.00000  Uiso   1.00
C391   C     0.54622   0.32376   0.67370   0.00000  Uiso   1.00
H392   H     0.64355   0.34894   0.53649   0.00000  Uiso   1.00
H393   H     0.75238   0.34742   0.54165   0.00000  Uiso   1.00
H394   H     0.59449   0.43552   0.48160   0.00000  Uiso   1.00
H395   H     0.58524   0.24959   0.57683   0.00000  Uiso   1.00
H396   H     0.87071   0.36834   0.56216   0.00000  Uiso   1.00
H397   H     0.53777   0.55409   0.43554   0.00000  Uiso   1.00
H398   H     0.51826   0.16201   0.63635   0.00000  Uiso   1.00
H399   H     0.62562   0.52298   0.65058   0.00000  Uiso   1.00
H400   H     0.73347   0.53101   0.66200   0.00000  Uiso   1.00
H401   H     0.57558   0.61911   0.60194   0.00000  Uiso   1.00
H402   H     0.56632   0.43318   0.69717   0.00000  Uiso   1.00
H403   H     0.85536   0.51735   0.65984   0.00000  Uiso   1.00
H404   H     0.52242   0.70310   0.53322   0.00000  Uiso   1.00
H405   H     0.50291   0.31102   0.73403   0.00000  Uiso   1.00
O406   O     0.93431   0.44501   0.61645   0.00000  Uiso   1.00
O407   O     0.49749   0.68870   0.45032   0.00000  Uiso   1.00
O408   O     0.47189   0.17430   0.71378   0.00000  Uiso   1.00
N409   N     0.85230   0.40230   0.58359   0.00000  Uiso   1.00
N410   N     0.54103   0.57597   0.46520   0.00000  Uiso   1.00
N411   N     0.52277   0.20941   0.65294   0.00000  Uiso   1.00
N412   N     0.84404   0.48248   0.63615   0.00000  Uiso   1.00
N413   N     0.53277   0.65615   0.51776   0.00000  Uiso   1.00
N414   N     0.51451   0.28959   0.70550   0.00000  Uiso   1.00
C415   C     0.63306   0.09133   0.93922   0.00000  Uiso   1.00
C416   C     0.68927   0.06712   0.92022   0.00000  Uiso   1.00
C417   C     0.74192   0.09026   0.93402   0.00000  Uiso   1.00
C418   C     0.78823   0.06171   0.91245   0.00000  Uiso   1.00
C419   C     0.87644   0.03168   0.88815   0.00000  Uiso   1.00
C420   C     0.60283   0.02050   0.95245   0.00000  Uiso   1.00
C421   C     0.58281   0.00447   0.99337   0.00000  Uiso   1.00
C422   C     0.55635   0.93668   0.99892   0.00000  Uiso   1.00
C423   C     0.51033   0.83431   0.02467   0.00000  Uiso   1.00
C424   C     0.59928   0.12340   0.90191   0.00000  Uiso   1.00
C425   C     0.57625   0.19388   0.90032   0.00000  Uiso   1.00
C426   C     0.54679   0.21272   0.86332   0.00000  Uiso   1.00
C427   C     0.49526   0.27012   0.81058   0.00000  Uiso   1.00
C428   C     0.62167   0.99946   0.87635   0.00000  Uiso   1.00
C429   C     0.68308   0.01722   0.88607   0.00000  Uiso   1.00
C430   C     0.72932   0.98863   0.86446   0.00000  Uiso   1.00
C431   C     0.78203   0.01173   0.87824   0.00000  Uiso   1.00
C432   C     0.59665   0.97061   0.91831   0.00000  Uiso   1.00
C433   C     0.57020   0.90283   0.92380   0.00000  Uiso   1.00
C434   C     0.55015   0.88669   0.96471   0.00000  Uiso   1.00
C435   C     0.59309   0.07351   0.86776   0.00000  Uiso   1.00
C436   C     0.56365   0.09224   0.83076   0.00000  Uiso   1.00
C437   C     0.54059   0.16274   0.82911   0.00000  Uiso   1.00
H438   H     0.63788   0.13017   0.96581   0.00000  Uiso   1.00
H439   H     0.74669   0.12887   0.96046   0.00000  Uiso   1.00
H440   H     0.58760   0.04309   0.01978   0.00000  Uiso   1.00
H441   H     0.58105   0.23248   0.92675   0.00000  Uiso   1.00
H442   H     0.86460   0.10541   0.93947   0.00000  Uiso   1.00
H443   H     0.52913   0.92455   0.06457   0.00000  Uiso   1.00
H444   H     0.51531   0.32390   0.86839   0.00000  Uiso   1.00
H445   H     0.61685   0.96061   0.84976   0.00000  Uiso   1.00
H446   H     0.72452   0.95002   0.83804   0.00000  Uiso   1.00
H447   H     0.56542   0.86424   0.89737   0.00000  Uiso   1.00
H448   H     0.55887   0.05362   0.80434   0.00000  Uiso   1.00
H449   H     0.84661   0.96024   0.84012   0.00000  Uiso   1.00
H450   H     0.51113   0.77938   0.96521   0.00000  Uiso   1.00
H451   H     0.49731   0.17873   0.76903   0.00000  Uiso   1.00
O452   O     0.92681   0.02889   0.88419   0.00000  Uiso   1.00
O453   O     0.48667   0.79162   0.04830   0.00000  Uiso   1.00
O454   O     0.46855   0.31556   0.79092   0.00000  Uiso   1.00
N455   N     0.84559   0.07271   0.91769   0.00000  Uiso   1.00
N456   N     0.53195   0.90361   0.03465   0.00000  Uiso   1.00
N457   N     0.51902   0.27697   0.85124   0.00000  Uiso   1.00
N458   N     0.83591   0.99460   0.86423   0.00000  Uiso   1.00
N459   N     0.52227   0.82550   0.98119   0.00000  Uiso   1.00
N460   N     0.50934   0.19885   0.79778   0.00000  Uiso   1.00
C461   C     0.13945   0.88881   0.56263   0.00000  Uiso   1.00
C462   C     0.19609   0.91212   0.58126   0.00000  Uiso   1.00
C463   C     0.24832   0.88705   0.56764   0.00000  Uiso   1.00
C464   C     0.29514   0.91505   0.58880   0.00000  Uiso   1.00
C465   C     0.38389   0.94347   0.61260   0.00000  Uiso   1.00
C466   C     0.11031   0.95999   0.54863   0.00000  Uiso   1.00
C467   C     0.09040   0.97517   0.50757   0.00000  Uiso   1.00
C468   C     0.06501   0.04347   0.50127   0.00000  Uiso   1.00
C469   C     0.02055   0.14619   0.47441   0.00000  Uiso   1.00
C470   C     0.10529   0.85896   0.60037   0.00000  Uiso   1.00
C471   C     0.08114   0.78921   0.60281   0.00000  Uiso   1.00
C472   C     0.05151   0.77245   0.64007   0.00000  Uiso   1.00
C473   C     0.99925   0.71831   0.69355   0.00000  Uiso   1.00
C474   C     0.12973   0.98311   0.62444   0.00000  Uiso   1.00
C475   C     0.19081   0.96333   0.61483   0.00000  Uiso   1.00
C476   C     0.23757   0.99138   0.63602   0.00000  Uiso   1.00
C477   C     0.28985   0.96636   0.62243   0.00000  Uiso   1.00
C478   C     0.10503   0.01121   0.58220   0.00000  Uiso   1.00
C479   C     0.07965   0.07949   0.57596   0.00000  Uiso   1.00
C480   C     0.05972   0.09478   0.53490   0.00000  Uiso   1.00
C481   C     0.10001   0.91018   0.63394   0.00000  Uiso   1.00
C482   C     0.07040   0.89353   0.67120   0.00000  Uiso   1.00
C483   C     0.04622   0.82376   0.67370   0.00000  Uiso   1.00
H484   H     0.14355   0.84894   0.53649   0.00000  Uiso   1.00
H485   H     0.25238   0.84742   0.54165   0.00000  Uiso   1.00
H486   H     0.09449   0.93552   0.48160   0.00000  Uiso   1.00
H487   H     0.08524   0.74959   0.57683   0.00000  Uiso   1.00
H488   H     0.37071   0.86834   0.56216   0.00000  Uiso   1.00
H489   H     0.03777   0.05409   0.43554   0.00000  Uiso   1.00
H490   H     0.01826   0.66201   0.63635   0.00000  Uiso   1.00
H491   H     0.12562   0.02298   0.65058   0.00000  Uiso   1.00
H492   H     0.23347   0.03101   0.66200   0.00000  Uiso   1.00
H493   H     0.07558   0.11911   0.60194   0.00000  Uiso   1.00
H494   H     0.06632   0.93318   0.69717   0.00000  Uiso   1.00
H495   H     0.35536   0.01735   0.65984   0.00000  Uiso   1.00
H496   H     0.02242   0.20310   0.53322   0.00000  Uiso   1.00
H497   H     0.00291   0.81102   0.73403   0.00000  Uiso   1.00
O498   O     0.43431   0.94501   0.61645   0.00000  Uiso   1.00
O499   O     0.99749   0.18870   0.45032   0.00000  Uiso   1.00
O500   O     0.97189   0.67430   0.71378   0.00000  Uiso   1.00
N501   N     0.35230   0.90230   0.58359   0.00000  Uiso   1.00
N502   N     0.04103   0.07597   0.46520   0.00000  Uiso   1.00
N503   N     0.02277   0.70941   0.65294   0.00000  Uiso   1.00
N504   N     0.34404   0.98248   0.63615   0.00000  Uiso   1.00
N505   N     0.03277   0.15615   0.51776   0.00000  Uiso   1.00
N506   N     0.01451   0.78959   0.70550   0.00000  Uiso   1.00
C507   C     0.13306   0.59133   0.93922   0.00000  Uiso   1.00
C508   C     0.18927   0.56712   0.92022   0.00000  Uiso   1.00
C509   C     0.24192   0.59026   0.93402   0.00000  Uiso   1.00
C510   C     0.28823   0.56171   0.91245   0.00000  Uiso   1.00
C511   C     0.37644   0.53168   0.88815   0.00000  Uiso   1.00
C512   C     0.10283   0.52050   0.95245   0.00000  Uiso   1.00
C513   C     0.08281   0.50447   0.99337   0.00000  Uiso   1.00
C514   C     0.05635   0.43668   0.99892   0.00000  Uiso   1.00
C515   C     0.01033   0.33431   0.02467   0.00000  Uiso   1.00
C516   C     0.09928   0.62340   0.90191   0.00000  Uiso   1.00
C517   C     0.07625   0.69388   0.90032   0.00000  Uiso   1.00
C518   C     0.04679   0.71272   0.86332   0.00000  Uiso   1.00
C519   C     0.99526   0.77012   0.81058   0.00000  Uiso   1.00
C520   C     0.12167   0.49946   0.87635   0.00000  Uiso   1.00
C521   C     0.18308   0.51722   0.88607   0.00000  Uiso   1.00
C522   C     0.22932   0.48863   0.86446   0.00000  Uiso   1.00
C523   C     0.28203   0.51173   0.87824   0.00000  Uiso   1.00
C524   C     0.09665   0.47061   0.91831   0.00000  Uiso   1.00
C525   C     0.07020   0.40283   0.92380   0.00000  Uiso   1.00
C526   C     0.05015   0.38669   0.96471   0.00000  Uiso   1.00
C527   C     0.09309   0.57351   0.86776   0.00000  Uiso   1.00
C528   C     0.06365   0.59224   0.83076   0.00000  Uiso   1.00
C529   C     0.04059   0.66274   0.82911   0.00000  Uiso   1.00
H530   H     0.13788   0.63017   0.96581   0.00000  Uiso   1.00
H531   H     0.24669   0.62887   0.96046   0.00000  Uiso   1.00
H532   H     0.08760   0.54309   0.01978   0.00000  Uiso   1.00
H533   H     0.08105   0.73248   0.92675   0.00000  Uiso   1.00
H534   H     0.36460   0.60541   0.93947   0.00000  Uiso   1.00
H535   H     0.02913   0.42455   0.06457   0.00000  Uiso   1.00
H536   H     0.01531   0.82390   0.86839   0.00000  Uiso   1.00
H537   H     0.11685   0.46061   0.84976   0.00000  Uiso   1.00
H538   H     0.22452   0.45002   0.83804   0.00000  Uiso   1.00
H539   H     0.06542   0.36424   0.89737   0.00000  Uiso   1.00
H540   H     0.05887   0.55362   0.80434   0.00000  Uiso   1.00
H541   H     0.34661   0.46024   0.84012   0.00000  Uiso   1.00
H542   H     0.01113   0.27938   0.96521   0.00000  Uiso   1.00
H543   H     0.99731   0.67873   0.76903   0.00000  Uiso   1.00
O544   O     0.42681   0.52889   0.88419   0.00000  Uiso   1.00
O545   O     0.98667   0.29162   0.04830   0.00000  Uiso   1.00
O546   O     0.96855   0.81556   0.79092   0.00000  Uiso   1.00
N547   N     0.34559   0.57271   0.91769   0.00000  Uiso   1.00
N548   N     0.03195   0.40361   0.03465   0.00000  Uiso   1.00
N549   N     0.01902   0.77697   0.85124   0.00000  Uiso   1.00
N550   N     0.33591   0.49460   0.86423   0.00000  Uiso   1.00
N551   N     0.02227   0.32550   0.98119   0.00000  Uiso   1.00
N552   N     0.00934   0.69885   0.79778   0.00000  Uiso   1.00
C553   C     0.36055   0.61119   0.56263   0.00000  Uiso   1.00
C554   C     0.30391   0.58788   0.58126   0.00000  Uiso   1.00
C555   C     0.25168   0.61295   0.56764   0.00000  Uiso   1.00
C556   C     0.20486   0.58495   0.58880   0.00000  Uiso   1.00
C557   C     0.11611   0.55653   0.61260   0.00000  Uiso   1.00
C558   C     0.38969   0.54001   0.54863   0.00000  Uiso   1.00
C559   C     0.40960   0.52483   0.50757   0.00000  Uiso   1.00
C560   C     0.43499   0.45653   0.50127   0.00000  Uiso   1.00
C561   C     0.47945   0.35381   0.47441   0.00000  Uiso   1.00
C562   C     0.39471   0.64104   0.60037   0.00000  Uiso   1.00
C563   C     0.41886   0.71079   0.60281   0.00000  Uiso   1.00
C564   C     0.44849   0.72755   0.64007   0.00000  Uiso   1.00
C565   C     0.50075   0.78169   0.69355   0.00000  Uiso   1.00
C566   C     0.37027   0.51689   0.62444   0.00000  Uiso   1.00
C567   C     0.30919   0.53667   0.61483   0.00000  Uiso   1.00
C568   C     0.26243   0.50862   0.63602   0.00000  Uiso   1.00
C569   C     0.21015   0.53364   0.62243   0.00000  Uiso   1.00
C570   C     0.39497   0.48879   0.58220   0.00000  Uiso   1.00
C571   C     0.42035   0.42051   0.57596   0.00000  Uiso   1.00
C572   C     0.44028   0.40522   0.53490   0.00000  Uiso   1.00
C573   C     0.39999   0.58982   0.63394   0.00000  Uiso   1.00
C574   C     0.42960   0.60647   0.67120   0.00000  Uiso   1.00
C575   C     0.45378   0.67624   0.67370   0.00000  Uiso   1.00
H576   H     0.35645   0.65106   0.53649   0.00000  Uiso   1.00
H577   H     0.24762   0.65258   0.54165   0.00000  Uiso   1.00
H578   H     0.40551   0.56448   0.48160   0.00000  Uiso   1.00
H579   H     0.41476   0.75041   0.57683   0.00000  Uiso   1.00
H580   H     0.12929   0.63166   0.56216   0.00000  Uiso   1.00
H581   H     0.46223   0.44591   0.43554   0.00000  Uiso   1.00
H582   H     0.48174   0.83799   0.63635   0.00000  Uiso   1.00
H583   H     0.37438   0.47702   0.65058   0.00000  Uiso   1.00
H584   H     0.26653   0.46899   0.66200   0.00000  Uiso   1.00
H585   H     0.42442   0.38089   0.60194   0.00000  Uiso   1.00
H586   H     0.43368   0.56682   0.69717   0.00000  Uiso   1.00
H587   H     0.14464   0.48265   0.65984   0.00000  Uiso   1.00
H588   H     0.47758   0.29690   0.53322   0.00000  Uiso   1.00
H589   H     0.49709   0.68898   0.73403   0.00000  Uiso   1.00
O590   O     0.06569   0.55499   0.61645   0.00000  Uiso   1.00
O591   O     0.50251   0.31130   0.45032   0.00000  Uiso   1.00
O592   O     0.52811   0.82570   0.71378   0.00000  Uiso   1.00
N593   N     0.14770   0.59770   0.58359   0.00000  Uiso   1.00
N594   N     0.45897   0.42403   0.46520   0.00000  Uiso   1.00
N595   N     0.47723   0.79059   0.65294   0.00000  Uiso   1.00
N596   N     0.15596   0.51752   0.63615   0.00000  Uiso   1.00
N597   N     0.46723   0.34385   0.51776   0.00000  Uiso   1.00
N598   N     0.48549   0.71041   0.70550   0.00000  Uiso   1.00
C599   C     0.36694   0.90867   0.93922   0.00000  Uiso   1.00
C600   C     0.31073   0.93288   0.92022   0.00000  Uiso   1.00
C601   C     0.25808   0.90974   0.93402   0.00000  Uiso   1.00
C602   C     0.21177   0.93829   0.91245   0.00000  Uiso   1.00
C603   C     0.12356   0.96832   0.88815   0.00000  Uiso   1.00
C604   C     0.39717   0.97950   0.95245   0.00000  Uiso   1.00
C605   C     0.41719   0.99553   0.99337   0.00000  Uiso   1.00
C606   C     0.44365   0.06332   0.99892   0.00000  Uiso   1.00
C607   C     0.48967   0.16569   0.02467   0.00000  Uiso   1.00
C608   C     0.40072   0.87660   0.90191   0.00000  Uiso   1.00
C609   C     0.42375   0.80612   0.90032   0.00000  Uiso   1.00
C610   C     0.45321   0.78728   0.86332   0.00000  Uiso   1.00
C611   C     0.50474   0.72988   0.81058   0.00000  Uiso   1.00
C612   C     0.37833   0.00054   0.87635   0.00000  Uiso   1.00
C613   C     0.31692   0.98278   0.88607   0.00000  Uiso   1.00
C614   C     0.27068   0.01137   0.86446   0.00000  Uiso   1.00
C615   C     0.21797   0.98827   0.87824   0.00000  Uiso   1.00
C616   C     0.40335   0.02939   0.91831   0.00000  Uiso   1.00
C617   C     0.42980   0.09717   0.92380   0.00000  Uiso   1.00
C618   C     0.44985   0.11331   0.96471   0.00000  Uiso   1.00
C619   C     0.40691   0.92649   0.86776   0.00000  Uiso   1.00
C620   C     0.43635   0.90776   0.83076   0.00000  Uiso   1.00
C621   C     0.45941   0.83726   0.82911   0.00000  Uiso   1.00
H622   H     0.36212   0.86983   0.96581   0.00000  Uiso   1.00
H623   H     0.25331   0.87113   0.96046   0.00000  Uiso   1.00
H624   H     0.41240   0.95691   0.01978   0.00000  Uiso   1.00
H625   H     0.41895   0.76752   0.92675   0.00000  Uiso   1.00
H626   H     0.13540   0.89459   0.93947   0.00000  Uiso   1.00
H627   H     0.47087   0.07545   0.06457   0.00000  Uiso   1.00
H628   H     0.48469   0.67610   0.86839   0.00000  Uiso   1.00
H629   H     0.38315   0.03939   0.84976   0.00000  Uiso   1.00
H630   H     0.27548   0.04998   0.83804   0.00000  Uiso   1.00
H631   H     0.43458   0.13576   0.89737   0.00000  Uiso   1.00
H632   H     0.44113   0.94638   0.80434   0.00000  Uiso   1.00
H633   H     0.15339   0.03976   0.84012   0.00000  Uiso   1.00
H634   H     0.48887   0.22062   0.96521   0.00000  Uiso   1.00
H635   H     0.50269   0.82127   0.76903   0.00000  Uiso   1.00
O636   O     0.07319   0.97111   0.88419   0.00000  Uiso   1.00
O637   O     0.51333   0.20838   0.04830   0.00000  Uiso   1.00
O638   O     0.53145   0.68444   0.79092   0.00000  Uiso   1.00
N639   N     0.15441   0.92729   0.91769   0.00000  Uiso   1.00
N640   N     0.46805   0.09639   0.03465   0.00000  Uiso   1.00
N641   N     0.48098   0.72303   0.85124   0.00000  Uiso   1.00
N642   N     0.16409   0.00540   0.86423   0.00000  Uiso   1.00
N643   N     0.47773   0.17450   0.98119   0.00000  Uiso   1.00
N644   N     0.49066   0.80115   0.79778   0.00000  Uiso   1.00
C645   C     0.86055   0.11119   0.56263   0.00000  Uiso   1.00
C646   C     0.80391   0.08788   0.58126   0.00000  Uiso   1.00
C647   C     0.75168   0.11295   0.56764   0.00000  Uiso   1.00
C648   C     0.70486   0.08495   0.58880   0.00000  Uiso   1.00
C649   C     0.61611   0.05653   0.61260   0.00000  Uiso   1.00
C650   C     0.88969   0.04001   0.54863   0.00000  Uiso   1.00
C651   C     0.90960   0.02483   0.50757   0.00000  Uiso   1.00
C652   C     0.93499   0.95653   0.50127   0.00000  Uiso   1.00
C653   C     0.97945   0.85381   0.47441   0.00000  Uiso   1.00
C654   C     0.89471   0.14104   0.60037   0.00000  Uiso   1.00
C655   C     0.91886   0.21079   0.60281   0.00000  Uiso   1.00
C656   C     0.94849   0.22755   0.64007   0.00000  Uiso   1.00
C657   C     0.00075   0.28169   0.69355   0.00000  Uiso   1.00
C658   C     0.87027   0.01689   0.62444   0.00000  Uiso   1.00
C659   C     0.80919   0.03667   0.61483   0.00000  Uiso   1.00
C660   C     0.76243   0.00862   0.63602   0.00000  Uiso   1.00
C661   C     0.71015   0.03364   0.62243   0.00000  Uiso   1.00
C662   C     0.89497   0.98879   0.58220   0.00000  Uiso   1.00
C663   C     0.92035   0.92051   0.57596   0.00000  Uiso   1.00
C664   C     0.94028   0.90522   0.53490   0.00000  Uiso   1.00
C665   C     0.89999   0.08982   0.63394   0.00000  Uiso   1.00
C666   C     0.92960   0.10647   0.67120   0.00000  Uiso   1.00
C667   C     0.95378   0.17624   0.67370   0.00000  Uiso   1.00
H668   H     0.85645   0.15106   0.53649   0.00000  Uiso   1.00
H669   H     0.74762   0.15258   0.54165   0.00000  Uiso   1.00
H670   H     0.90551   0.06448   0.48160   0.00000  Uiso   1.00
H671   H     0.91476   0.25041   0.57683   0.00000  Uiso   1.00
H672   H     0.62929   0.13166   0.56216   0.00000  Uiso   1.00
H673   H     0.96223   0.94591   0.43554   0.00000  Uiso   1.00
H674   H     0.98174   0.33799   0.63635   0.00000  Uiso   1.00
H675   H     0.87438   0.97702   0.65058   0.00000  Uiso   1.00
H676   H     0.76653   0.96899   0.66200   0.00000  Uiso   1.00
H677   H     0.92442   0.88089   0.60194   0.00000  Uiso   1.00
H678   H     0.93368   0.06682   0.69717   0.00000  Uiso   1.00
H679   H     0.64464   0.98265   0.65984   0.00000  Uiso   1.00
H680   H     0.97758   0.79690   0.53322   0.00000  Uiso   1.00
H681   H     0.99709   0.18898   0.73403   0.00000  Uiso   1.00
O682   O     0.56569   0.05499   0.61645   0.00000  Uiso   1.00
O683   O     0.00251   0.81130   0.45032   0.00000  Uiso   1.00
O684   O     0.02811   0.32570   0.71378   0.00000  Uiso   1.00
N685   N     0.64770   0.09770   0.58359   0.00000  Uiso   1.00
N686   N     0.95897   0.92403   0.46520   0.00000  Uiso   1.00
N687   N     0.97723   0.29059   0.65294   0.00000  Uiso   1.00
N688   N     0.65596   0.01752   0.63615   0.00000  Uiso   1.00
N689   N     0.96723   0.84385   0.51776   0.00000  Uiso   1.00
N690   N     0.98549   0.21041   0.70550   0.00000  Uiso   1.00
C691   C     0.86694   0.40867   0.93922   0.00000  Uiso   1.00
C692   C     0.81073   0.43288   0.92022   0.00000  Uiso   1.00
C693   C     0.75808   0.40974   0.93402   0.00000  Uiso   1.00
C694   C     0.71177   0.43829   0.91245   0.00000  Uiso   1.00
C695   C     0.62356   0.46832   0.88815   0.00000  Uiso   1.00
C696   C     0.89717   0.47950   0.95245   0.00000  Uiso   1.00
C697   C     0.91719   0.49553   0.99337   0.00000  Uiso   1.00
C698   C     0.94365   0.56332   0.99892   0.00000  Uiso   1.00
C699   C     0.98967   0.66569   0.02467   0.00000  Uiso   1.00
C700   C     0.90072   0.37660   0.90191   0.00000  Uiso   1.00
C701   C     0.92375   0.30612   0.90032   0.00000  Uiso   1.00
C702   C     0.95321   0.28728   0.86332   0.00000  Uiso   1.00
C703   C     0.00474   0.22988   0.81058   0.00000  Uiso   1.00
C704   C     0.87833   0.50054   0.87635   0.00000  Uiso   1.00
C705   C     0.81692   0.48278   0.88607   0.00000  Uiso   1.00
C706   C     0.77068   0.51137   0.86446   0.00000  Uiso   1.00
C707   C     0.71797   0.48827   0.87824   0.00000  Uiso   1.00
C708   C     0.90335   0.52939   0.91831   0.00000  Uiso   1.00
C709   C     0.92980   0.59717   0.92380   0.00000  Uiso   1.00
C710   C     0.94985   0.61331   0.96471   0.00000  Uiso   1.00
C711   C     0.90691   0.42649   0.86776   0.00000  Uiso   1.00
C712   C     0.93635   0.40776   0.83076   0.00000  Uiso   1.00
C713   C     0.95941   0.33726   0.82911   0.00000  Uiso   1.00
H714   H     0.86212   0.36983   0.96581   0.00000  Uiso   1.00
H715   H     0.75331   0.37113   0.96046   0.00000  Uiso   1.00
H716   H     0.91240   0.45691   0.01978   0.00000  Uiso   1.00
H717   H     0.91895   0.26752   0.92675   0.00000  Uiso   1.00
H718   H     0.63540   0.39459   0.93947   0.00000  Uiso   1.00
H719   H     0.97087   0.57545   0.06457   0.00000  Uiso   1.00
H720   H     0.98469   0.17610   0.86839   0.00000  Uiso   1.00
H721   H     0.88315   0.53939   0.84976   0.00000  Uiso   1.00
H722   H     0.77548   0.54998   0.83804   0.00000  Uiso   1.00
H723   H     0.93458   0.63576   0.89737   0.00000  Uiso   1.00
H724   H     0.94113   0.44638   0.80434   0.00000  Uiso   1.00
H725   H     0.65339   0.53976   0.84012   0.00000  Uiso   1.00
H726   H     0.98887   0.72062   0.96521   0.00000  Uiso   1.00
H727   H     0.00269   0.32127   0.76903   0.00000  Uiso   1.00
O728   O     0.57319   0.47111   0.88419   0.00000  Uiso   1.00
O729   O     0.01333   0.70838   0.04830   0.00000  Uiso   1.00
O730   O     0.03145   0.18444   0.79092   0.00000  Uiso   1.00
N731   N     0.65441   0.42729   0.91769   0.00000  Uiso   1.00
N732   N     0.96805   0.59639   0.03465   0.00000  Uiso   1.00
N733   N     0.98098   0.22303   0.85124   0.00000  Uiso   1.00
N734   N     0.66409   0.50540   0.86423   0.00000  Uiso   1.00
N735   N     0.97773   0.67450   0.98119   0.00000  Uiso   1.00
N736   N     0.99066   0.30115   0.79778   0.00000  Uiso   1.00
