data_job_02398
_audit_creation_date              2018-12-19
_audit_creation_method            'Materials Studio'
_symmetry_space_group_name_H-M    'P1'
_symmetry_Int_Tables_number       1
_symmetry_cell_setting            triclinic
loop_
_symmetry_equiv_pos_as_xyz
  x,y,z
_cell_length_a                    20.8675
_cell_length_b                    15.5485
_cell_length_c                    38.8755
_cell_angle_alpha                 90.0000
_cell_angle_beta                  90.0000
_cell_angle_gamma                 90.0000
loop_
_atom_site_label
_atom_site_type_symbol
_atom_site_fract_x
_atom_site_fract_y
_atom_site_fract_z
_atom_site_U_iso_or_equiv
_atom_site_adp_type
_atom_site_occupancy
C1     C     0.41257   0.76746   0.35292   0.00000  Uiso   1.00
C2     C     0.38024   0.81545   0.38240   0.00000  Uiso   1.00
C3     C     0.36017   0.90052   0.38164   0.00000  Uiso   1.00
C4     C     0.33163   0.93254   0.41125   0.00000  Uiso   1.00
C5     C     0.28269   0.01487   0.45258   0.00000  Uiso   1.00
C6     C     0.47586   0.73393   0.36723   0.00000  Uiso   1.00
C7     C     0.53618   0.75046   0.35372   0.00000  Uiso   1.00
C8     C     0.58813   0.71385   0.37056   0.00000  Uiso   1.00
C9     C     0.68764   0.66958   0.38832   0.00000  Uiso   1.00
C10    C     0.37136   0.68830   0.34609   0.00000  Uiso   1.00
C11    C     0.34381   0.66644   0.31479   0.00000  Uiso   1.00
C12    C     0.30779   0.59140   0.31382   0.00000  Uiso   1.00
C13    C     0.24504   0.47627   0.29875   0.00000  Uiso   1.00
C14    C     0.39759   0.67305   0.40685   0.00000  Uiso   1.00
C15    C     0.37211   0.76417   0.41169   0.00000  Uiso   1.00
C16    C     0.34359   0.79607   0.44131   0.00000  Uiso   1.00
C17    C     0.32347   0.88117   0.44060   0.00000  Uiso   1.00
C18    C     0.46773   0.68266   0.39652   0.00000  Uiso   1.00
C19    C     0.51960   0.64601   0.41338   0.00000  Uiso   1.00
C20    C     0.57998   0.66248   0.39990   0.00000  Uiso   1.00
C21    C     0.36321   0.63702   0.37538   0.00000  Uiso   1.00
C22    C     0.32723   0.56200   0.37446   0.00000  Uiso   1.00
C23    C     0.29964   0.54003   0.34317   0.00000  Uiso   1.00
H24    H     0.41892   0.80738   0.33011   0.00000  Uiso   1.00
H25    H     0.36648   0.94018   0.35897   0.00000  Uiso   1.00
H26    H     0.54246   0.79013   0.33105   0.00000  Uiso   1.00
H27    H     0.35012   0.70614   0.29213   0.00000  Uiso   1.00
H28    H     0.30478   0.06481   0.40389   0.00000  Uiso   1.00
H29    H     0.67584   0.74841   0.34500   0.00000  Uiso   1.00
H30    H     0.27026   0.57128   0.26293   0.00000  Uiso   1.00
H31    H     0.39126   0.63313   0.42965   0.00000  Uiso   1.00
H32    H     0.33730   0.75638   0.46397   0.00000  Uiso   1.00
H33    H     0.51328   0.60633   0.43605   0.00000  Uiso   1.00
H34    H     0.32094   0.52233   0.39713   0.00000  Uiso   1.00
H35    H     0.28109   0.91563   0.48911   0.00000  Uiso   1.00
H36    H     0.65216   0.59923   0.43023   0.00000  Uiso   1.00
H37    H     0.24658   0.42210   0.34815   0.00000  Uiso   1.00
O38    O     0.25796   0.07445   0.46728   0.00000  Uiso   1.00
O39    O     0.74478   0.65933   0.39002   0.00000  Uiso   1.00
O40    O     0.21267   0.42694   0.28235   0.00000  Uiso   1.00
N41    N     0.30659   0.01279   0.41923   0.00000  Uiso   1.00
N42    N     0.65352   0.71698   0.36418   0.00000  Uiso   1.00
N43    N     0.27435   0.55136   0.28745   0.00000  Uiso   1.00
N44    N     0.29385   0.93251   0.46509   0.00000  Uiso   1.00
N45    N     0.64078   0.63671   0.41004   0.00000  Uiso   1.00
N46    N     0.26161   0.47109   0.33331   0.00000  Uiso   1.00
C47    C     0.91257   0.26746   0.35292   0.00000  Uiso   1.00
C48    C     0.88024   0.31545   0.38240   0.00000  Uiso   1.00
C49    C     0.86017   0.40052   0.38164   0.00000  Uiso   1.00
C50    C     0.83163   0.43254   0.41125   0.00000  Uiso   1.00
C51    C     0.78269   0.51487   0.45258   0.00000  Uiso   1.00
C52    C     0.97586   0.23393   0.36723   0.00000  Uiso   1.00
C53    C     0.03618   0.25046   0.35372   0.00000  Uiso   1.00
C54    C     0.08813   0.21385   0.37056   0.00000  Uiso   1.00
C55    C     0.18764   0.16958   0.38832   0.00000  Uiso   1.00
C56    C     0.87136   0.18830   0.34609   0.00000  Uiso   1.00
C57    C     0.84381   0.16644   0.31479   0.00000  Uiso   1.00
C58    C     0.80779   0.09140   0.31382   0.00000  Uiso   1.00
C59    C     0.74504   0.97627   0.29875   0.00000  Uiso   1.00
C60    C     0.89759   0.17305   0.40685   0.00000  Uiso   1.00
C61    C     0.87211   0.26417   0.41169   0.00000  Uiso   1.00
C62    C     0.84359   0.29607   0.44131   0.00000  Uiso   1.00
C63    C     0.82347   0.38117   0.44060   0.00000  Uiso   1.00
C64    C     0.96773   0.18266   0.39652   0.00000  Uiso   1.00
C65    C     0.01960   0.14601   0.41338   0.00000  Uiso   1.00
C66    C     0.07998   0.16248   0.39990   0.00000  Uiso   1.00
C67    C     0.86321   0.13702   0.37538   0.00000  Uiso   1.00
C68    C     0.82723   0.06200   0.37446   0.00000  Uiso   1.00
C69    C     0.79964   0.04003   0.34317   0.00000  Uiso   1.00
H70    H     0.91892   0.30738   0.33011   0.00000  Uiso   1.00
H71    H     0.86648   0.44018   0.35897   0.00000  Uiso   1.00
H72    H     0.04246   0.29013   0.33105   0.00000  Uiso   1.00
H73    H     0.85012   0.20614   0.29213   0.00000  Uiso   1.00
H74    H     0.80478   0.56481   0.40389   0.00000  Uiso   1.00
H75    H     0.17584   0.24841   0.34500   0.00000  Uiso   1.00
H76    H     0.77026   0.07128   0.26293   0.00000  Uiso   1.00
H77    H     0.89126   0.13313   0.42965   0.00000  Uiso   1.00
H78    H     0.83730   0.25638   0.46397   0.00000  Uiso   1.00
H79    H     0.01328   0.10633   0.43605   0.00000  Uiso   1.00
H80    H     0.82094   0.02233   0.39713   0.00000  Uiso   1.00
H81    H     0.78109   0.41563   0.48911   0.00000  Uiso   1.00
H82    H     0.15216   0.09923   0.43023   0.00000  Uiso   1.00
H83    H     0.74658   0.92210   0.34815   0.00000  Uiso   1.00
O84    O     0.75796   0.57445   0.46728   0.00000  Uiso   1.00
O85    O     0.24478   0.15933   0.39002   0.00000  Uiso   1.00
O86    O     0.71267   0.92694   0.28235   0.00000  Uiso   1.00
N87    N     0.80659   0.51279   0.41923   0.00000  Uiso   1.00
N88    N     0.15352   0.21698   0.36418   0.00000  Uiso   1.00
N89    N     0.77435   0.05136   0.28745   0.00000  Uiso   1.00
N90    N     0.79385   0.43251   0.46509   0.00000  Uiso   1.00
N91    N     0.14078   0.13671   0.41004   0.00000  Uiso   1.00
N92    N     0.76161   0.97109   0.33331   0.00000  Uiso   1.00
C93    C     0.08743   0.73254   0.35292   0.00000  Uiso   1.00
C94    C     0.11976   0.68455   0.38240   0.00000  Uiso   1.00
C95    C     0.13983   0.59948   0.38164   0.00000  Uiso   1.00
C96    C     0.16837   0.56746   0.41125   0.00000  Uiso   1.00
C97    C     0.21731   0.48513   0.45258   0.00000  Uiso   1.00
C98    C     0.02414   0.76607   0.36723   0.00000  Uiso   1.00
C99    C     0.96382   0.74954   0.35372   0.00000  Uiso   1.00
C100   C     0.91187   0.78615   0.37056   0.00000  Uiso   1.00
C101   C     0.81236   0.83042   0.38832   0.00000  Uiso   1.00
C102   C     0.12864   0.81170   0.34609   0.00000  Uiso   1.00
C103   C     0.15619   0.83356   0.31479   0.00000  Uiso   1.00
C104   C     0.19221   0.90860   0.31382   0.00000  Uiso   1.00
C105   C     0.25496   0.02373   0.29875   0.00000  Uiso   1.00
C106   C     0.10241   0.82695   0.40685   0.00000  Uiso   1.00
C107   C     0.12789   0.73583   0.41169   0.00000  Uiso   1.00
C108   C     0.15641   0.70393   0.44131   0.00000  Uiso   1.00
C109   C     0.17653   0.61883   0.44060   0.00000  Uiso   1.00
C110   C     0.03227   0.81734   0.39652   0.00000  Uiso   1.00
C111   C     0.98040   0.85399   0.41338   0.00000  Uiso   1.00
C112   C     0.92002   0.83752   0.39990   0.00000  Uiso   1.00
C113   C     0.13679   0.86298   0.37538   0.00000  Uiso   1.00
C114   C     0.17277   0.93800   0.37446   0.00000  Uiso   1.00
C115   C     0.20036   0.95997   0.34317   0.00000  Uiso   1.00
H116   H     0.08108   0.69262   0.33011   0.00000  Uiso   1.00
H117   H     0.13352   0.55982   0.35897   0.00000  Uiso   1.00
H118   H     0.95754   0.70987   0.33105   0.00000  Uiso   1.00
H119   H     0.14988   0.79386   0.29213   0.00000  Uiso   1.00
H120   H     0.19522   0.43519   0.40389   0.00000  Uiso   1.00
H121   H     0.82416   0.75159   0.34500   0.00000  Uiso   1.00
H122   H     0.22974   0.92872   0.26293   0.00000  Uiso   1.00
H123   H     0.10874   0.86687   0.42965   0.00000  Uiso   1.00
H124   H     0.16270   0.74362   0.46397   0.00000  Uiso   1.00
H125   H     0.98672   0.89367   0.43605   0.00000  Uiso   1.00
H126   H     0.17906   0.97767   0.39713   0.00000  Uiso   1.00
H127   H     0.21891   0.58437   0.48911   0.00000  Uiso   1.00
H128   H     0.84784   0.90077   0.43023   0.00000  Uiso   1.00
H129   H     0.25342   0.07790   0.34815   0.00000  Uiso   1.00
O130   O     0.24204   0.42555   0.46728   0.00000  Uiso   1.00
O131   O     0.75522   0.84067   0.39002   0.00000  Uiso   1.00
O132   O     0.28733   0.07306   0.28235   0.00000  Uiso   1.00
N133   N     0.19341   0.48721   0.41923   0.00000  Uiso   1.00
N134   N     0.84648   0.78302   0.36418   0.00000  Uiso   1.00
N135   N     0.22565   0.94864   0.28745   0.00000  Uiso   1.00
N136   N     0.20615   0.56749   0.46509   0.00000  Uiso   1.00
N137   N     0.85922   0.86329   0.41004   0.00000  Uiso   1.00
N138   N     0.23839   0.02891   0.33331   0.00000  Uiso   1.00
C139   C     0.58743   0.23254   0.35292   0.00000  Uiso   1.00
C140   C     0.61976   0.18455   0.38240   0.00000  Uiso   1.00
C141   C     0.63983   0.09948   0.38164   0.00000  Uiso   1.00
C142   C     0.66837   0.06746   0.41125   0.00000  Uiso   1.00
C143   C     0.71731   0.98513   0.45258   0.00000  Uiso   1.00
C144   C     0.52414   0.26607   0.36723   0.00000  Uiso   1.00
C145   C     0.46382   0.24954   0.35372   0.00000  Uiso   1.00
C146   C     0.41187   0.28615   0.37056   0.00000  Uiso   1.00
C147   C     0.31236   0.33042   0.38832   0.00000  Uiso   1.00
C148   C     0.62864   0.31170   0.34609   0.00000  Uiso   1.00
C149   C     0.65619   0.33356   0.31479   0.00000  Uiso   1.00
C150   C     0.69221   0.40860   0.31382   0.00000  Uiso   1.00
C151   C     0.75496   0.52373   0.29875   0.00000  Uiso   1.00
C152   C     0.60241   0.32695   0.40685   0.00000  Uiso   1.00
C153   C     0.62789   0.23583   0.41169   0.00000  Uiso   1.00
C154   C     0.65641   0.20393   0.44131   0.00000  Uiso   1.00
C155   C     0.67653   0.11883   0.44060   0.00000  Uiso   1.00
C156   C     0.53227   0.31734   0.39652   0.00000  Uiso   1.00
C157   C     0.48040   0.35399   0.41338   0.00000  Uiso   1.00
C158   C     0.42002   0.33752   0.39990   0.00000  Uiso   1.00
C159   C     0.63679   0.36298   0.37538   0.00000  Uiso   1.00
C160   C     0.67277   0.43800   0.37446   0.00000  Uiso   1.00
C161   C     0.70036   0.45997   0.34317   0.00000  Uiso   1.00
H162   H     0.58108   0.19262   0.33011   0.00000  Uiso   1.00
H163   H     0.63352   0.05982   0.35897   0.00000  Uiso   1.00
H164   H     0.45754   0.20987   0.33105   0.00000  Uiso   1.00
H165   H     0.64988   0.29386   0.29213   0.00000  Uiso   1.00
H166   H     0.69522   0.93519   0.40389   0.00000  Uiso   1.00
H167   H     0.32416   0.25159   0.34500   0.00000  Uiso   1.00
H168   H     0.72974   0.42872   0.26293   0.00000  Uiso   1.00
H169   H     0.60874   0.36687   0.42965   0.00000  Uiso   1.00
H170   H     0.66270   0.24362   0.46397   0.00000  Uiso   1.00
H171   H     0.48672   0.39367   0.43605   0.00000  Uiso   1.00
H172   H     0.67906   0.47767   0.39713   0.00000  Uiso   1.00
H173   H     0.71891   0.08437   0.48911   0.00000  Uiso   1.00
H174   H     0.34784   0.40077   0.43023   0.00000  Uiso   1.00
H175   H     0.75342   0.57790   0.34815   0.00000  Uiso   1.00
O176   O     0.74204   0.92555   0.46728   0.00000  Uiso   1.00
O177   O     0.25522   0.34067   0.39002   0.00000  Uiso   1.00
O178   O     0.78733   0.57306   0.28235   0.00000  Uiso   1.00
N179   N     0.69341   0.98721   0.41923   0.00000  Uiso   1.00
N180   N     0.34648   0.28302   0.36418   0.00000  Uiso   1.00
N181   N     0.72565   0.44864   0.28745   0.00000  Uiso   1.00
N182   N     0.70615   0.06749   0.46509   0.00000  Uiso   1.00
N183   N     0.35922   0.36329   0.41004   0.00000  Uiso   1.00
N184   N     0.73839   0.52891   0.33331   0.00000  Uiso   1.00
C185   C     0.58743   0.76746   0.64708   0.00000  Uiso   1.00
C186   C     0.61976   0.81545   0.61760   0.00000  Uiso   1.00
C187   C     0.63983   0.90052   0.61836   0.00000  Uiso   1.00
C188   C     0.66837   0.93254   0.58875   0.00000  Uiso   1.00
C189   C     0.71731   0.01487   0.54742   0.00000  Uiso   1.00
C190   C     0.52414   0.73393   0.63277   0.00000  Uiso   1.00
C191   C     0.46382   0.75046   0.64628   0.00000  Uiso   1.00
C192   C     0.41187   0.71385   0.62944   0.00000  Uiso   1.00
C193   C     0.31236   0.66958   0.61168   0.00000  Uiso   1.00
C194   C     0.62864   0.68830   0.65391   0.00000  Uiso   1.00
C195   C     0.65619   0.66644   0.68521   0.00000  Uiso   1.00
C196   C     0.69221   0.59140   0.68618   0.00000  Uiso   1.00
C197   C     0.75496   0.47627   0.70125   0.00000  Uiso   1.00
C198   C     0.60241   0.67305   0.59315   0.00000  Uiso   1.00
C199   C     0.62789   0.76417   0.58831   0.00000  Uiso   1.00
C200   C     0.65641   0.79607   0.55869   0.00000  Uiso   1.00
C201   C     0.67653   0.88117   0.55940   0.00000  Uiso   1.00
C202   C     0.53227   0.68266   0.60348   0.00000  Uiso   1.00
C203   C     0.48040   0.64601   0.58662   0.00000  Uiso   1.00
C204   C     0.42002   0.66248   0.60010   0.00000  Uiso   1.00
C205   C     0.63679   0.63702   0.62462   0.00000  Uiso   1.00
C206   C     0.67277   0.56200   0.62554   0.00000  Uiso   1.00
C207   C     0.70036   0.54003   0.65683   0.00000  Uiso   1.00
H208   H     0.58108   0.80738   0.66989   0.00000  Uiso   1.00
H209   H     0.63352   0.94018   0.64103   0.00000  Uiso   1.00
H210   H     0.45754   0.79013   0.66895   0.00000  Uiso   1.00
H211   H     0.64988   0.70614   0.70787   0.00000  Uiso   1.00
H212   H     0.69522   0.06481   0.59611   0.00000  Uiso   1.00
H213   H     0.32416   0.74841   0.65500   0.00000  Uiso   1.00
H214   H     0.72974   0.57128   0.73707   0.00000  Uiso   1.00
H215   H     0.60874   0.63313   0.57035   0.00000  Uiso   1.00
H216   H     0.66270   0.75638   0.53603   0.00000  Uiso   1.00
H217   H     0.48672   0.60633   0.56395   0.00000  Uiso   1.00
H218   H     0.67906   0.52233   0.60287   0.00000  Uiso   1.00
H219   H     0.71891   0.91563   0.51089   0.00000  Uiso   1.00
H220   H     0.34784   0.59923   0.56977   0.00000  Uiso   1.00
H221   H     0.75342   0.42210   0.65185   0.00000  Uiso   1.00
O222   O     0.74204   0.07445   0.53272   0.00000  Uiso   1.00
O223   O     0.25522   0.65933   0.60998   0.00000  Uiso   1.00
O224   O     0.78733   0.42694   0.71765   0.00000  Uiso   1.00
N225   N     0.69341   0.01279   0.58077   0.00000  Uiso   1.00
N226   N     0.34648   0.71698   0.63582   0.00000  Uiso   1.00
N227   N     0.72565   0.55136   0.71255   0.00000  Uiso   1.00
N228   N     0.70615   0.93251   0.53491   0.00000  Uiso   1.00
N229   N     0.35922   0.63671   0.58996   0.00000  Uiso   1.00
N230   N     0.73839   0.47109   0.66669   0.00000  Uiso   1.00
C231   C     0.08743   0.26746   0.64708   0.00000  Uiso   1.00
C232   C     0.11976   0.31545   0.61760   0.00000  Uiso   1.00
C233   C     0.13983   0.40052   0.61836   0.00000  Uiso   1.00
C234   C     0.16837   0.43254   0.58875   0.00000  Uiso   1.00
C235   C     0.21731   0.51487   0.54742   0.00000  Uiso   1.00
C236   C     0.02414   0.23393   0.63277   0.00000  Uiso   1.00
C237   C     0.96382   0.25046   0.64628   0.00000  Uiso   1.00
C238   C     0.91187   0.21385   0.62944   0.00000  Uiso   1.00
C239   C     0.81236   0.16958   0.61168   0.00000  Uiso   1.00
C240   C     0.12864   0.18830   0.65391   0.00000  Uiso   1.00
C241   C     0.15619   0.16644   0.68521   0.00000  Uiso   1.00
C242   C     0.19221   0.09140   0.68618   0.00000  Uiso   1.00
C243   C     0.25496   0.97627   0.70125   0.00000  Uiso   1.00
C244   C     0.10241   0.17305   0.59315   0.00000  Uiso   1.00
C245   C     0.12789   0.26417   0.58831   0.00000  Uiso   1.00
C246   C     0.15641   0.29607   0.55869   0.00000  Uiso   1.00
C247   C     0.17653   0.38117   0.55940   0.00000  Uiso   1.00
C248   C     0.03227   0.18266   0.60348   0.00000  Uiso   1.00
C249   C     0.98040   0.14601   0.58662   0.00000  Uiso   1.00
C250   C     0.92002   0.16248   0.60010   0.00000  Uiso   1.00
C251   C     0.13679   0.13702   0.62462   0.00000  Uiso   1.00
C252   C     0.17277   0.06200   0.62554   0.00000  Uiso   1.00
C253   C     0.20036   0.04003   0.65683   0.00000  Uiso   1.00
H254   H     0.08108   0.30738   0.66989   0.00000  Uiso   1.00
H255   H     0.13352   0.44018   0.64103   0.00000  Uiso   1.00
H256   H     0.95754   0.29013   0.66895   0.00000  Uiso   1.00
H257   H     0.14988   0.20614   0.70787   0.00000  Uiso   1.00
H258   H     0.19522   0.56481   0.59611   0.00000  Uiso   1.00
H259   H     0.82416   0.24841   0.65500   0.00000  Uiso   1.00
H260   H     0.22974   0.07128   0.73707   0.00000  Uiso   1.00
H261   H     0.10874   0.13313   0.57035   0.00000  Uiso   1.00
H262   H     0.16270   0.25638   0.53603   0.00000  Uiso   1.00
H263   H     0.98672   0.10633   0.56395   0.00000  Uiso   1.00
H264   H     0.17906   0.02233   0.60287   0.00000  Uiso   1.00
H265   H     0.21891   0.41563   0.51089   0.00000  Uiso   1.00
H266   H     0.84784   0.09923   0.56977   0.00000  Uiso   1.00
H267   H     0.25342   0.92210   0.65185   0.00000  Uiso   1.00
O268   O     0.24204   0.57445   0.53272   0.00000  Uiso   1.00
O269   O     0.75522   0.15933   0.60998   0.00000  Uiso   1.00
O270   O     0.28733   0.92694   0.71765   0.00000  Uiso   1.00
N271   N     0.19341   0.51279   0.58077   0.00000  Uiso   1.00
N272   N     0.84648   0.21698   0.63582   0.00000  Uiso   1.00
N273   N     0.22565   0.05136   0.71255   0.00000  Uiso   1.00
N274   N     0.20615   0.43251   0.53491   0.00000  Uiso   1.00
N275   N     0.85922   0.13671   0.58996   0.00000  Uiso   1.00
N276   N     0.23839   0.97109   0.66669   0.00000  Uiso   1.00
C277   C     0.91257   0.73254   0.64708   0.00000  Uiso   1.00
C278   C     0.88024   0.68455   0.61760   0.00000  Uiso   1.00
C279   C     0.86017   0.59948   0.61836   0.00000  Uiso   1.00
C280   C     0.83163   0.56746   0.58875   0.00000  Uiso   1.00
C281   C     0.78269   0.48513   0.54742   0.00000  Uiso   1.00
C282   C     0.97586   0.76607   0.63277   0.00000  Uiso   1.00
C283   C     0.03618   0.74954   0.64628   0.00000  Uiso   1.00
C284   C     0.08813   0.78615   0.62944   0.00000  Uiso   1.00
C285   C     0.18764   0.83042   0.61168   0.00000  Uiso   1.00
C286   C     0.87136   0.81170   0.65391   0.00000  Uiso   1.00
C287   C     0.84381   0.83356   0.68521   0.00000  Uiso   1.00
C288   C     0.80779   0.90860   0.68618   0.00000  Uiso   1.00
C289   C     0.74504   0.02373   0.70125   0.00000  Uiso   1.00
C290   C     0.89759   0.82695   0.59315   0.00000  Uiso   1.00
C291   C     0.87211   0.73583   0.58831   0.00000  Uiso   1.00
C292   C     0.84359   0.70393   0.55869   0.00000  Uiso   1.00
C293   C     0.82347   0.61883   0.55940   0.00000  Uiso   1.00
C294   C     0.96773   0.81734   0.60348   0.00000  Uiso   1.00
C295   C     0.01960   0.85399   0.58662   0.00000  Uiso   1.00
C296   C     0.07998   0.83752   0.60010   0.00000  Uiso   1.00
C297   C     0.86321   0.86298   0.62462   0.00000  Uiso   1.00
C298   C     0.82723   0.93800   0.62554   0.00000  Uiso   1.00
C299   C     0.79964   0.95997   0.65683   0.00000  Uiso   1.00
H300   H     0.91892   0.69262   0.66989   0.00000  Uiso   1.00
H301   H     0.86648   0.55982   0.64103   0.00000  Uiso   1.00
H302   H     0.04246   0.70987   0.66895   0.00000  Uiso   1.00
H303   H     0.85012   0.79386   0.70787   0.00000  Uiso   1.00
H304   H     0.80478   0.43519   0.59611   0.00000  Uiso   1.00
H305   H     0.17584   0.75159   0.65500   0.00000  Uiso   1.00
H306   H     0.77026   0.92872   0.73707   0.00000  Uiso   1.00
H307   H     0.89126   0.86687   0.57035   0.00000  Uiso   1.00
H308   H     0.83730   0.74362   0.53603   0.00000  Uiso   1.00
H309   H     0.01328   0.89367   0.56395   0.00000  Uiso   1.00
H310   H     0.82094   0.97767   0.60287   0.00000  Uiso   1.00
H311   H     0.78109   0.58437   0.51089   0.00000  Uiso   1.00
H312   H     0.15216   0.90077   0.56977   0.00000  Uiso   1.00
H313   H     0.74658   0.07790   0.65185   0.00000  Uiso   1.00
O314   O     0.75796   0.42555   0.53272   0.00000  Uiso   1.00
O315   O     0.24478   0.84067   0.60998   0.00000  Uiso   1.00
O316   O     0.71267   0.07306   0.71765   0.00000  Uiso   1.00
N317   N     0.80659   0.48721   0.58077   0.00000  Uiso   1.00
N318   N     0.15352   0.78302   0.63582   0.00000  Uiso   1.00
N319   N     0.77435   0.94864   0.71255   0.00000  Uiso   1.00
N320   N     0.79385   0.56749   0.53491   0.00000  Uiso   1.00
N321   N     0.14078   0.86329   0.58996   0.00000  Uiso   1.00
N322   N     0.76161   0.02891   0.66669   0.00000  Uiso   1.00
C323   C     0.41257   0.23254   0.64708   0.00000  Uiso   1.00
C324   C     0.38024   0.18455   0.61760   0.00000  Uiso   1.00
C325   C     0.36017   0.09948   0.61836   0.00000  Uiso   1.00
C326   C     0.33163   0.06746   0.58875   0.00000  Uiso   1.00
C327   C     0.28269   0.98513   0.54742   0.00000  Uiso   1.00
C328   C     0.47586   0.26607   0.63277   0.00000  Uiso   1.00
C329   C     0.53618   0.24954   0.64628   0.00000  Uiso   1.00
C330   C     0.58813   0.28615   0.62944   0.00000  Uiso   1.00
C331   C     0.68764   0.33042   0.61168   0.00000  Uiso   1.00
C332   C     0.37136   0.31170   0.65391   0.00000  Uiso   1.00
C333   C     0.34381   0.33356   0.68521   0.00000  Uiso   1.00
C334   C     0.30779   0.40860   0.68618   0.00000  Uiso   1.00
C335   C     0.24504   0.52373   0.70125   0.00000  Uiso   1.00
C336   C     0.39759   0.32695   0.59315   0.00000  Uiso   1.00
C337   C     0.37211   0.23583   0.58831   0.00000  Uiso   1.00
C338   C     0.34359   0.20393   0.55869   0.00000  Uiso   1.00
C339   C     0.32347   0.11883   0.55940   0.00000  Uiso   1.00
C340   C     0.46773   0.31734   0.60348   0.00000  Uiso   1.00
C341   C     0.51960   0.35399   0.58662   0.00000  Uiso   1.00
C342   C     0.57998   0.33752   0.60010   0.00000  Uiso   1.00
C343   C     0.36321   0.36298   0.62462   0.00000  Uiso   1.00
C344   C     0.32723   0.43800   0.62554   0.00000  Uiso   1.00
C345   C     0.29964   0.45997   0.65683   0.00000  Uiso   1.00
H346   H     0.41892   0.19262   0.66989   0.00000  Uiso   1.00
H347   H     0.36648   0.05982   0.64103   0.00000  Uiso   1.00
H348   H     0.54246   0.20987   0.66895   0.00000  Uiso   1.00
H349   H     0.35012   0.29386   0.70787   0.00000  Uiso   1.00
H350   H     0.30478   0.93519   0.59611   0.00000  Uiso   1.00
H351   H     0.67584   0.25159   0.65500   0.00000  Uiso   1.00
H352   H     0.27026   0.42872   0.73707   0.00000  Uiso   1.00
H353   H     0.39126   0.36687   0.57035   0.00000  Uiso   1.00
H354   H     0.33730   0.24362   0.53603   0.00000  Uiso   1.00
H355   H     0.51328   0.39367   0.56395   0.00000  Uiso   1.00
H356   H     0.32094   0.47767   0.60287   0.00000  Uiso   1.00
H357   H     0.28109   0.08437   0.51089   0.00000  Uiso   1.00
H358   H     0.65216   0.40077   0.56977   0.00000  Uiso   1.00
H359   H     0.24658   0.57790   0.65185   0.00000  Uiso   1.00
O360   O     0.25796   0.92555   0.53272   0.00000  Uiso   1.00
O361   O     0.74478   0.34067   0.60998   0.00000  Uiso   1.00
O362   O     0.21267   0.57306   0.71765   0.00000  Uiso   1.00
N363   N     0.30659   0.98721   0.58077   0.00000  Uiso   1.00
N364   N     0.65352   0.28302   0.63582   0.00000  Uiso   1.00
N365   N     0.27435   0.44864   0.71255   0.00000  Uiso   1.00
N366   N     0.29385   0.06749   0.53491   0.00000  Uiso   1.00
N367   N     0.64078   0.36329   0.58996   0.00000  Uiso   1.00
N368   N     0.26161   0.52891   0.66669   0.00000  Uiso   1.00
C369   C     0.58743   0.73254   0.14708   0.00000  Uiso   1.00
C370   C     0.61976   0.68455   0.11760   0.00000  Uiso   1.00
C371   C     0.63983   0.59948   0.11836   0.00000  Uiso   1.00
C372   C     0.66837   0.56746   0.08875   0.00000  Uiso   1.00
C373   C     0.71731   0.48513   0.04742   0.00000  Uiso   1.00
C374   C     0.52414   0.76607   0.13277   0.00000  Uiso   1.00
C375   C     0.46382   0.74954   0.14628   0.00000  Uiso   1.00
C376   C     0.41187   0.78615   0.12944   0.00000  Uiso   1.00
C377   C     0.31236   0.83042   0.11168   0.00000  Uiso   1.00
C378   C     0.62864   0.81170   0.15391   0.00000  Uiso   1.00
C379   C     0.65619   0.83356   0.18521   0.00000  Uiso   1.00
C380   C     0.69221   0.90860   0.18618   0.00000  Uiso   1.00
C381   C     0.75496   0.02373   0.20125   0.00000  Uiso   1.00
C382   C     0.60241   0.82695   0.09315   0.00000  Uiso   1.00
C383   C     0.62789   0.73583   0.08831   0.00000  Uiso   1.00
C384   C     0.65641   0.70393   0.05869   0.00000  Uiso   1.00
C385   C     0.67653   0.61883   0.05940   0.00000  Uiso   1.00
C386   C     0.53227   0.81734   0.10348   0.00000  Uiso   1.00
C387   C     0.48040   0.85399   0.08662   0.00000  Uiso   1.00
C388   C     0.42002   0.83752   0.10010   0.00000  Uiso   1.00
C389   C     0.63679   0.86298   0.12462   0.00000  Uiso   1.00
C390   C     0.67277   0.93800   0.12554   0.00000  Uiso   1.00
C391   C     0.70036   0.95997   0.15683   0.00000  Uiso   1.00
H392   H     0.58108   0.69262   0.16989   0.00000  Uiso   1.00
H393   H     0.63352   0.55982   0.14103   0.00000  Uiso   1.00
H394   H     0.45754   0.70987   0.16895   0.00000  Uiso   1.00
H395   H     0.64988   0.79386   0.20787   0.00000  Uiso   1.00
H396   H     0.69522   0.43519   0.09611   0.00000  Uiso   1.00
H397   H     0.32416   0.75159   0.15500   0.00000  Uiso   1.00
H398   H     0.72974   0.92872   0.23707   0.00000  Uiso   1.00
H399   H     0.60874   0.86687   0.07035   0.00000  Uiso   1.00
H400   H     0.66270   0.74362   0.03603   0.00000  Uiso   1.00
H401   H     0.48672   0.89367   0.06395   0.00000  Uiso   1.00
H402   H     0.67906   0.97767   0.10287   0.00000  Uiso   1.00
H403   H     0.71891   0.58437   0.01089   0.00000  Uiso   1.00
H404   H     0.34784   0.90077   0.06977   0.00000  Uiso   1.00
H405   H     0.75342   0.07790   0.15185   0.00000  Uiso   1.00
O406   O     0.74204   0.42555   0.03272   0.00000  Uiso   1.00
O407   O     0.25522   0.84067   0.10998   0.00000  Uiso   1.00
O408   O     0.78733   0.07306   0.21765   0.00000  Uiso   1.00
N409   N     0.69341   0.48721   0.08077   0.00000  Uiso   1.00
N410   N     0.34648   0.78302   0.13582   0.00000  Uiso   1.00
N411   N     0.72565   0.94864   0.21255   0.00000  Uiso   1.00
N412   N     0.70615   0.56749   0.03491   0.00000  Uiso   1.00
N413   N     0.35922   0.86329   0.08996   0.00000  Uiso   1.00
N414   N     0.73839   0.02891   0.16669   0.00000  Uiso   1.00
C415   C     0.08743   0.23254   0.14708   0.00000  Uiso   1.00
C416   C     0.11976   0.18455   0.11760   0.00000  Uiso   1.00
C417   C     0.13983   0.09948   0.11836   0.00000  Uiso   1.00
C418   C     0.16837   0.06746   0.08875   0.00000  Uiso   1.00
C419   C     0.21731   0.98513   0.04742   0.00000  Uiso   1.00
C420   C     0.02414   0.26607   0.13277   0.00000  Uiso   1.00
C421   C     0.96382   0.24954   0.14628   0.00000  Uiso   1.00
C422   C     0.91187   0.28615   0.12944   0.00000  Uiso   1.00
C423   C     0.81236   0.33042   0.11168   0.00000  Uiso   1.00
C424   C     0.12864   0.31170   0.15391   0.00000  Uiso   1.00
C425   C     0.15619   0.33356   0.18521   0.00000  Uiso   1.00
C426   C     0.19221   0.40860   0.18618   0.00000  Uiso   1.00
C427   C     0.25496   0.52373   0.20125   0.00000  Uiso   1.00
C428   C     0.10241   0.32695   0.09315   0.00000  Uiso   1.00
C429   C     0.12789   0.23583   0.08831   0.00000  Uiso   1.00
C430   C     0.15641   0.20393   0.05869   0.00000  Uiso   1.00
C431   C     0.17653   0.11883   0.05940   0.00000  Uiso   1.00
C432   C     0.03227   0.31734   0.10348   0.00000  Uiso   1.00
C433   C     0.98040   0.35399   0.08662   0.00000  Uiso   1.00
C434   C     0.92002   0.33752   0.10010   0.00000  Uiso   1.00
C435   C     0.13679   0.36298   0.12462   0.00000  Uiso   1.00
C436   C     0.17277   0.43800   0.12554   0.00000  Uiso   1.00
C437   C     0.20036   0.45997   0.15683   0.00000  Uiso   1.00
H438   H     0.08108   0.19262   0.16989   0.00000  Uiso   1.00
H439   H     0.13352   0.05982   0.14103   0.00000  Uiso   1.00
H440   H     0.95754   0.20987   0.16895   0.00000  Uiso   1.00
H441   H     0.14988   0.29386   0.20787   0.00000  Uiso   1.00
H442   H     0.19522   0.93519   0.09611   0.00000  Uiso   1.00
H443   H     0.82416   0.25159   0.15500   0.00000  Uiso   1.00
H444   H     0.22974   0.42872   0.23707   0.00000  Uiso   1.00
H445   H     0.10874   0.36687   0.07035   0.00000  Uiso   1.00
H446   H     0.16270   0.24362   0.03603   0.00000  Uiso   1.00
H447   H     0.98672   0.39367   0.06395   0.00000  Uiso   1.00
H448   H     0.17906   0.47767   0.10287   0.00000  Uiso   1.00
H449   H     0.21891   0.08437   0.01089   0.00000  Uiso   1.00
H450   H     0.84784   0.40077   0.06977   0.00000  Uiso   1.00
H451   H     0.25342   0.57790   0.15185   0.00000  Uiso   1.00
O452   O     0.24204   0.92555   0.03272   0.00000  Uiso   1.00
O453   O     0.75522   0.34067   0.10998   0.00000  Uiso   1.00
O454   O     0.28733   0.57306   0.21765   0.00000  Uiso   1.00
N455   N     0.19341   0.98721   0.08077   0.00000  Uiso   1.00
N456   N     0.84648   0.28302   0.13582   0.00000  Uiso   1.00
N457   N     0.22565   0.44864   0.21255   0.00000  Uiso   1.00
N458   N     0.20615   0.06749   0.03491   0.00000  Uiso   1.00
N459   N     0.85922   0.36329   0.08996   0.00000  Uiso   1.00
N460   N     0.23839   0.52891   0.16669   0.00000  Uiso   1.00
C461   C     0.91257   0.76746   0.14708   0.00000  Uiso   1.00
C462   C     0.88024   0.81545   0.11760   0.00000  Uiso   1.00
C463   C     0.86017   0.90052   0.11836   0.00000  Uiso   1.00
C464   C     0.83163   0.93254   0.08875   0.00000  Uiso   1.00
C465   C     0.78269   0.01487   0.04742   0.00000  Uiso   1.00
C466   C     0.97586   0.73393   0.13277   0.00000  Uiso   1.00
C467   C     0.03618   0.75046   0.14628   0.00000  Uiso   1.00
C468   C     0.08813   0.71385   0.12944   0.00000  Uiso   1.00
C469   C     0.18764   0.66958   0.11168   0.00000  Uiso   1.00
C470   C     0.87136   0.68830   0.15391   0.00000  Uiso   1.00
C471   C     0.84381   0.66644   0.18521   0.00000  Uiso   1.00
C472   C     0.80779   0.59140   0.18618   0.00000  Uiso   1.00
C473   C     0.74504   0.47627   0.20125   0.00000  Uiso   1.00
C474   C     0.89759   0.67305   0.09315   0.00000  Uiso   1.00
C475   C     0.87211   0.76417   0.08831   0.00000  Uiso   1.00
C476   C     0.84359   0.79607   0.05869   0.00000  Uiso   1.00
C477   C     0.82347   0.88117   0.05940   0.00000  Uiso   1.00
C478   C     0.96773   0.68266   0.10348   0.00000  Uiso   1.00
C479   C     0.01960   0.64601   0.08662   0.00000  Uiso   1.00
C480   C     0.07998   0.66248   0.10010   0.00000  Uiso   1.00
C481   C     0.86321   0.63702   0.12462   0.00000  Uiso   1.00
C482   C     0.82723   0.56200   0.12554   0.00000  Uiso   1.00
C483   C     0.79964   0.54003   0.15683   0.00000  Uiso   1.00
H484   H     0.91892   0.80738   0.16989   0.00000  Uiso   1.00
H485   H     0.86648   0.94018   0.14103   0.00000  Uiso   1.00
H486   H     0.04246   0.79013   0.16895   0.00000  Uiso   1.00
H487   H     0.85012   0.70614   0.20787   0.00000  Uiso   1.00
H488   H     0.80478   0.06481   0.09611   0.00000  Uiso   1.00
H489   H     0.17584   0.74841   0.15500   0.00000  Uiso   1.00
H490   H     0.77026   0.57128   0.23707   0.00000  Uiso   1.00
H491   H     0.89126   0.63313   0.07035   0.00000  Uiso   1.00
H492   H     0.83730   0.75638   0.03603   0.00000  Uiso   1.00
H493   H     0.01328   0.60633   0.06395   0.00000  Uiso   1.00
H494   H     0.82094   0.52233   0.10287   0.00000  Uiso   1.00
H495   H     0.78109   0.91563   0.01089   0.00000  Uiso   1.00
H496   H     0.15216   0.59923   0.06977   0.00000  Uiso   1.00
H497   H     0.74658   0.42210   0.15185   0.00000  Uiso   1.00
O498   O     0.75796   0.07445   0.03272   0.00000  Uiso   1.00
O499   O     0.24478   0.65933   0.10998   0.00000  Uiso   1.00
O500   O     0.71267   0.42694   0.21765   0.00000  Uiso   1.00
N501   N     0.80659   0.01279   0.08077   0.00000  Uiso   1.00
N502   N     0.15352   0.71698   0.13582   0.00000  Uiso   1.00
N503   N     0.77435   0.55136   0.21255   0.00000  Uiso   1.00
N504   N     0.79385   0.93251   0.03491   0.00000  Uiso   1.00
N505   N     0.14078   0.63671   0.08996   0.00000  Uiso   1.00
N506   N     0.76161   0.47109   0.16669   0.00000  Uiso   1.00
C507   C     0.41257   0.26746   0.14708   0.00000  Uiso   1.00
C508   C     0.38024   0.31545   0.11760   0.00000  Uiso   1.00
C509   C     0.36017   0.40052   0.11836   0.00000  Uiso   1.00
C510   C     0.33163   0.43254   0.08875   0.00000  Uiso   1.00
C511   C     0.28269   0.51487   0.04742   0.00000  Uiso   1.00
C512   C     0.47586   0.23393   0.13277   0.00000  Uiso   1.00
C513   C     0.53618   0.25046   0.14628   0.00000  Uiso   1.00
C514   C     0.58813   0.21385   0.12944   0.00000  Uiso   1.00
C515   C     0.68764   0.16958   0.11168   0.00000  Uiso   1.00
C516   C     0.37136   0.18830   0.15391   0.00000  Uiso   1.00
C517   C     0.34381   0.16644   0.18521   0.00000  Uiso   1.00
C518   C     0.30779   0.09140   0.18618   0.00000  Uiso   1.00
C519   C     0.24504   0.97627   0.20125   0.00000  Uiso   1.00
C520   C     0.39759   0.17305   0.09315   0.00000  Uiso   1.00
C521   C     0.37211   0.26417   0.08831   0.00000  Uiso   1.00
C522   C     0.34359   0.29607   0.05869   0.00000  Uiso   1.00
C523   C     0.32347   0.38117   0.05940   0.00000  Uiso   1.00
C524   C     0.46773   0.18266   0.10348   0.00000  Uiso   1.00
C525   C     0.51960   0.14601   0.08662   0.00000  Uiso   1.00
C526   C     0.57998   0.16248   0.10010   0.00000  Uiso   1.00
C527   C     0.36321   0.13702   0.12462   0.00000  Uiso   1.00
C528   C     0.32723   0.06200   0.12554   0.00000  Uiso   1.00
C529   C     0.29964   0.04003   0.15683   0.00000  Uiso   1.00
H530   H     0.41892   0.30738   0.16989   0.00000  Uiso   1.00
H531   H     0.36648   0.44018   0.14103   0.00000  Uiso   1.00
H532   H     0.54246   0.29013   0.16895   0.00000  Uiso   1.00
H533   H     0.35012   0.20614   0.20787   0.00000  Uiso   1.00
H534   H     0.30478   0.56481   0.09611   0.00000  Uiso   1.00
H535   H     0.67584   0.24841   0.15500   0.00000  Uiso   1.00
H536   H     0.27026   0.07128   0.23707   0.00000  Uiso   1.00
H537   H     0.39126   0.13313   0.07035   0.00000  Uiso   1.00
H538   H     0.33730   0.25638   0.03603   0.00000  Uiso   1.00
H539   H     0.51328   0.10633   0.06395   0.00000  Uiso   1.00
H540   H     0.32094   0.02233   0.10287   0.00000  Uiso   1.00
H541   H     0.28109   0.41563   0.01089   0.00000  Uiso   1.00
H542   H     0.65216   0.09923   0.06977   0.00000  Uiso   1.00
H543   H     0.24658   0.92210   0.15185   0.00000  Uiso   1.00
O544   O     0.25796   0.57445   0.03272   0.00000  Uiso   1.00
O545   O     0.74478   0.15933   0.10998   0.00000  Uiso   1.00
O546   O     0.21267   0.92694   0.21765   0.00000  Uiso   1.00
N547   N     0.30659   0.51279   0.08077   0.00000  Uiso   1.00
N548   N     0.65352   0.21698   0.13582   0.00000  Uiso   1.00
N549   N     0.27435   0.05136   0.21255   0.00000  Uiso   1.00
N550   N     0.29385   0.43251   0.03491   0.00000  Uiso   1.00
N551   N     0.64078   0.13671   0.08996   0.00000  Uiso   1.00
N552   N     0.26161   0.97109   0.16669   0.00000  Uiso   1.00
C553   C     0.41257   0.73254   0.85292   0.00000  Uiso   1.00
C554   C     0.38024   0.68455   0.88240   0.00000  Uiso   1.00
C555   C     0.36017   0.59948   0.88164   0.00000  Uiso   1.00
C556   C     0.33163   0.56746   0.91125   0.00000  Uiso   1.00
C557   C     0.28269   0.48513   0.95258   0.00000  Uiso   1.00
C558   C     0.47586   0.76607   0.86723   0.00000  Uiso   1.00
C559   C     0.53618   0.74954   0.85372   0.00000  Uiso   1.00
C560   C     0.58813   0.78615   0.87056   0.00000  Uiso   1.00
C561   C     0.68764   0.83042   0.88832   0.00000  Uiso   1.00
C562   C     0.37136   0.81170   0.84609   0.00000  Uiso   1.00
C563   C     0.34381   0.83356   0.81479   0.00000  Uiso   1.00
C564   C     0.30779   0.90860   0.81382   0.00000  Uiso   1.00
C565   C     0.24504   0.02373   0.79875   0.00000  Uiso   1.00
C566   C     0.39759   0.82695   0.90685   0.00000  Uiso   1.00
C567   C     0.37211   0.73583   0.91169   0.00000  Uiso   1.00
C568   C     0.34359   0.70393   0.94131   0.00000  Uiso   1.00
C569   C     0.32347   0.61883   0.94060   0.00000  Uiso   1.00
C570   C     0.46773   0.81734   0.89652   0.00000  Uiso   1.00
C571   C     0.51960   0.85399   0.91338   0.00000  Uiso   1.00
C572   C     0.57998   0.83752   0.89990   0.00000  Uiso   1.00
C573   C     0.36321   0.86298   0.87538   0.00000  Uiso   1.00
C574   C     0.32723   0.93800   0.87446   0.00000  Uiso   1.00
C575   C     0.29964   0.95997   0.84317   0.00000  Uiso   1.00
H576   H     0.41892   0.69262   0.83011   0.00000  Uiso   1.00
H577   H     0.36648   0.55982   0.85897   0.00000  Uiso   1.00
H578   H     0.54246   0.70987   0.83105   0.00000  Uiso   1.00
H579   H     0.35012   0.79386   0.79213   0.00000  Uiso   1.00
H580   H     0.30478   0.43519   0.90389   0.00000  Uiso   1.00
H581   H     0.67584   0.75159   0.84500   0.00000  Uiso   1.00
H582   H     0.27026   0.92872   0.76293   0.00000  Uiso   1.00
H583   H     0.39126   0.86687   0.92965   0.00000  Uiso   1.00
H584   H     0.33730   0.74362   0.96397   0.00000  Uiso   1.00
H585   H     0.51328   0.89367   0.93605   0.00000  Uiso   1.00
H586   H     0.32094   0.97767   0.89713   0.00000  Uiso   1.00
H587   H     0.28109   0.58437   0.98911   0.00000  Uiso   1.00
H588   H     0.65216   0.90077   0.93023   0.00000  Uiso   1.00
H589   H     0.24658   0.07790   0.84815   0.00000  Uiso   1.00
O590   O     0.25796   0.42555   0.96728   0.00000  Uiso   1.00
O591   O     0.74478   0.84067   0.89002   0.00000  Uiso   1.00
O592   O     0.21267   0.07306   0.78235   0.00000  Uiso   1.00
N593   N     0.30659   0.48721   0.91923   0.00000  Uiso   1.00
N594   N     0.65352   0.78302   0.86418   0.00000  Uiso   1.00
N595   N     0.27435   0.94864   0.78745   0.00000  Uiso   1.00
N596   N     0.29385   0.56749   0.96509   0.00000  Uiso   1.00
N597   N     0.64078   0.86329   0.91004   0.00000  Uiso   1.00
N598   N     0.26161   0.02891   0.83331   0.00000  Uiso   1.00
C599   C     0.91257   0.23254   0.85292   0.00000  Uiso   1.00
C600   C     0.88024   0.18455   0.88240   0.00000  Uiso   1.00
C601   C     0.86017   0.09948   0.88164   0.00000  Uiso   1.00
C602   C     0.83163   0.06746   0.91125   0.00000  Uiso   1.00
C603   C     0.78269   0.98513   0.95258   0.00000  Uiso   1.00
C604   C     0.97586   0.26607   0.86723   0.00000  Uiso   1.00
C605   C     0.03618   0.24954   0.85372   0.00000  Uiso   1.00
C606   C     0.08813   0.28615   0.87056   0.00000  Uiso   1.00
C607   C     0.18764   0.33042   0.88832   0.00000  Uiso   1.00
C608   C     0.87136   0.31170   0.84609   0.00000  Uiso   1.00
C609   C     0.84381   0.33356   0.81479   0.00000  Uiso   1.00
C610   C     0.80779   0.40860   0.81382   0.00000  Uiso   1.00
C611   C     0.74504   0.52373   0.79875   0.00000  Uiso   1.00
C612   C     0.89759   0.32695   0.90685   0.00000  Uiso   1.00
C613   C     0.87211   0.23583   0.91169   0.00000  Uiso   1.00
C614   C     0.84359   0.20393   0.94131   0.00000  Uiso   1.00
C615   C     0.82347   0.11883   0.94060   0.00000  Uiso   1.00
C616   C     0.96773   0.31734   0.89652   0.00000  Uiso   1.00
C617   C     0.01960   0.35399   0.91338   0.00000  Uiso   1.00
C618   C     0.07998   0.33752   0.89990   0.00000  Uiso   1.00
C619   C     0.86321   0.36298   0.87538   0.00000  Uiso   1.00
C620   C     0.82723   0.43800   0.87446   0.00000  Uiso   1.00
C621   C     0.79964   0.45997   0.84317   0.00000  Uiso   1.00
H622   H     0.91892   0.19262   0.83011   0.00000  Uiso   1.00
H623   H     0.86648   0.05982   0.85897   0.00000  Uiso   1.00
H624   H     0.04246   0.20987   0.83105   0.00000  Uiso   1.00
H625   H     0.85012   0.29386   0.79213   0.00000  Uiso   1.00
H626   H     0.80478   0.93519   0.90389   0.00000  Uiso   1.00
H627   H     0.17584   0.25159   0.84500   0.00000  Uiso   1.00
H628   H     0.77026   0.42872   0.76293   0.00000  Uiso   1.00
H629   H     0.89126   0.36687   0.92965   0.00000  Uiso   1.00
H630   H     0.83730   0.24362   0.96397   0.00000  Uiso   1.00
H631   H     0.01328   0.39367   0.93605   0.00000  Uiso   1.00
H632   H     0.82094   0.47767   0.89713   0.00000  Uiso   1.00
H633   H     0.78109   0.08437   0.98911   0.00000  Uiso   1.00
H634   H     0.15216   0.40077   0.93023   0.00000  Uiso   1.00
H635   H     0.74658   0.57790   0.84815   0.00000  Uiso   1.00
O636   O     0.75796   0.92555   0.96728   0.00000  Uiso   1.00
O637   O     0.24478   0.34067   0.89002   0.00000  Uiso   1.00
O638   O     0.71267   0.57306   0.78235   0.00000  Uiso   1.00
N639   N     0.80659   0.98721   0.91923   0.00000  Uiso   1.00
N640   N     0.15352   0.28302   0.86418   0.00000  Uiso   1.00
N641   N     0.77435   0.44864   0.78745   0.00000  Uiso   1.00
N642   N     0.79385   0.06749   0.96509   0.00000  Uiso   1.00
N643   N     0.14078   0.36329   0.91004   0.00000  Uiso   1.00
N644   N     0.76161   0.52891   0.83331   0.00000  Uiso   1.00
C645   C     0.08743   0.76746   0.85292   0.00000  Uiso   1.00
C646   C     0.11976   0.81545   0.88240   0.00000  Uiso   1.00
C647   C     0.13983   0.90052   0.88164   0.00000  Uiso   1.00
C648   C     0.16837   0.93254   0.91125   0.00000  Uiso   1.00
C649   C     0.21731   0.01487   0.95258   0.00000  Uiso   1.00
C650   C     0.02414   0.73393   0.86723   0.00000  Uiso   1.00
C651   C     0.96382   0.75046   0.85372   0.00000  Uiso   1.00
C652   C     0.91187   0.71385   0.87056   0.00000  Uiso   1.00
C653   C     0.81236   0.66958   0.88832   0.00000  Uiso   1.00
C654   C     0.12864   0.68830   0.84609   0.00000  Uiso   1.00
C655   C     0.15619   0.66644   0.81479   0.00000  Uiso   1.00
C656   C     0.19221   0.59140   0.81382   0.00000  Uiso   1.00
C657   C     0.25496   0.47627   0.79875   0.00000  Uiso   1.00
C658   C     0.10241   0.67305   0.90685   0.00000  Uiso   1.00
C659   C     0.12789   0.76417   0.91169   0.00000  Uiso   1.00
C660   C     0.15641   0.79607   0.94131   0.00000  Uiso   1.00
C661   C     0.17653   0.88117   0.94060   0.00000  Uiso   1.00
C662   C     0.03227   0.68266   0.89652   0.00000  Uiso   1.00
C663   C     0.98040   0.64601   0.91338   0.00000  Uiso   1.00
C664   C     0.92002   0.66248   0.89990   0.00000  Uiso   1.00
C665   C     0.13679   0.63702   0.87538   0.00000  Uiso   1.00
C666   C     0.17277   0.56200   0.87446   0.00000  Uiso   1.00
C667   C     0.20036   0.54003   0.84317   0.00000  Uiso   1.00
H668   H     0.08108   0.80738   0.83011   0.00000  Uiso   1.00
H669   H     0.13352   0.94018   0.85897   0.00000  Uiso   1.00
H670   H     0.95754   0.79013   0.83105   0.00000  Uiso   1.00
H671   H     0.14988   0.70614   0.79213   0.00000  Uiso   1.00
H672   H     0.19522   0.06481   0.90389   0.00000  Uiso   1.00
H673   H     0.82416   0.74841   0.84500   0.00000  Uiso   1.00
H674   H     0.22974   0.57128   0.76293   0.00000  Uiso   1.00
H675   H     0.10874   0.63313   0.92965   0.00000  Uiso   1.00
H676   H     0.16270   0.75638   0.96397   0.00000  Uiso   1.00
H677   H     0.98672   0.60633   0.93605   0.00000  Uiso   1.00
H678   H     0.17906   0.52233   0.89713   0.00000  Uiso   1.00
H679   H     0.21891   0.91563   0.98911   0.00000  Uiso   1.00
H680   H     0.84784   0.59923   0.93023   0.00000  Uiso   1.00
H681   H     0.25342   0.42210   0.84815   0.00000  Uiso   1.00
O682   O     0.24204   0.07445   0.96728   0.00000  Uiso   1.00
O683   O     0.75522   0.65933   0.89002   0.00000  Uiso   1.00
O684   O     0.28733   0.42694   0.78235   0.00000  Uiso   1.00
N685   N     0.19341   0.01279   0.91923   0.00000  Uiso   1.00
N686   N     0.84648   0.71698   0.86418   0.00000  Uiso   1.00
N687   N     0.22565   0.55136   0.78745   0.00000  Uiso   1.00
N688   N     0.20615   0.93251   0.96509   0.00000  Uiso   1.00
N689   N     0.85922   0.63671   0.91004   0.00000  Uiso   1.00
N690   N     0.23839   0.47109   0.83331   0.00000  Uiso   1.00
C691   C     0.58743   0.26746   0.85292   0.00000  Uiso   1.00
C692   C     0.61976   0.31545   0.88240   0.00000  Uiso   1.00
C693   C     0.63983   0.40052   0.88164   0.00000  Uiso   1.00
C694   C     0.66837   0.43254   0.91125   0.00000  Uiso   1.00
C695   C     0.71731   0.51487   0.95258   0.00000  Uiso   1.00
C696   C     0.52414   0.23393   0.86723   0.00000  Uiso   1.00
C697   C     0.46382   0.25046   0.85372   0.00000  Uiso   1.00
C698   C     0.41187   0.21385   0.87056   0.00000  Uiso   1.00
C699   C     0.31236   0.16958   0.88832   0.00000  Uiso   1.00
C700   C     0.62864   0.18830   0.84609   0.00000  Uiso   1.00
C701   C     0.65619   0.16644   0.81479   0.00000  Uiso   1.00
C702   C     0.69221   0.09140   0.81382   0.00000  Uiso   1.00
C703   C     0.75496   0.97627   0.79875   0.00000  Uiso   1.00
C704   C     0.60241   0.17305   0.90685   0.00000  Uiso   1.00
C705   C     0.62789   0.26417   0.91169   0.00000  Uiso   1.00
C706   C     0.65641   0.29607   0.94131   0.00000  Uiso   1.00
C707   C     0.67653   0.38117   0.94060   0.00000  Uiso   1.00
C708   C     0.53227   0.18266   0.89652   0.00000  Uiso   1.00
C709   C     0.48040   0.14601   0.91338   0.00000  Uiso   1.00
C710   C     0.42002   0.16248   0.89990   0.00000  Uiso   1.00
C711   C     0.63679   0.13702   0.87538   0.00000  Uiso   1.00
C712   C     0.67277   0.06200   0.87446   0.00000  Uiso   1.00
C713   C     0.70036   0.04003   0.84317   0.00000  Uiso   1.00
H714   H     0.58108   0.30738   0.83011   0.00000  Uiso   1.00
H715   H     0.63352   0.44018   0.85897   0.00000  Uiso   1.00
H716   H     0.45754   0.29013   0.83105   0.00000  Uiso   1.00
H717   H     0.64988   0.20614   0.79213   0.00000  Uiso   1.00
H718   H     0.69522   0.56481   0.90389   0.00000  Uiso   1.00
H719   H     0.32416   0.24841   0.84500   0.00000  Uiso   1.00
H720   H     0.72974   0.07128   0.76293   0.00000  Uiso   1.00
H721   H     0.60874   0.13313   0.92965   0.00000  Uiso   1.00
H722   H     0.66270   0.25638   0.96397   0.00000  Uiso   1.00
H723   H     0.48672   0.10633   0.93605   0.00000  Uiso   1.00
H724   H     0.67906   0.02233   0.89713   0.00000  Uiso   1.00
H725   H     0.71891   0.41563   0.98911   0.00000  Uiso   1.00
H726   H     0.34784   0.09923   0.93023   0.00000  Uiso   1.00
H727   H     0.75342   0.92210   0.84815   0.00000  Uiso   1.00
O728   O     0.74204   0.57445   0.96728   0.00000  Uiso   1.00
O729   O     0.25522   0.15933   0.89002   0.00000  Uiso   1.00
O730   O     0.78733   0.92694   0.78235   0.00000  Uiso   1.00
N731   N     0.69341   0.51279   0.91923   0.00000  Uiso   1.00
N732   N     0.34648   0.21698   0.86418   0.00000  Uiso   1.00
N733   N     0.72565   0.05136   0.78745   0.00000  Uiso   1.00
N734   N     0.70615   0.43251   0.96509   0.00000  Uiso   1.00
N735   N     0.35922   0.13671   0.91004   0.00000  Uiso   1.00
N736   N     0.73839   0.97109   0.83331   0.00000  Uiso   1.00
