data_job_05666
_audit_creation_date              2018-12-19
_audit_creation_method            'Materials Studio'
_symmetry_space_group_name_H-M    'P1'
_symmetry_Int_Tables_number       1
_symmetry_cell_setting            triclinic
loop_
_symmetry_equiv_pos_as_xyz
  x,y,z
_cell_length_a                    18.7263
_cell_length_b                    18.7263
_cell_length_c                    29.5719
_cell_angle_alpha                 90.0000
_cell_angle_beta                  90.0000
_cell_angle_gamma                 90.0000
loop_
_atom_site_label
_atom_site_type_symbol
_atom_site_fract_x
_atom_site_fract_y
_atom_site_fract_z
_atom_site_U_iso_or_equiv
_atom_site_adp_type
_atom_site_occupancy
C1     C     0.80381   0.49292   0.57038   0.00000  Uiso   1.00
C2     C     0.81050   0.54601   0.53150   0.00000  Uiso   1.00
C3     C     0.82828   0.61766   0.53561   0.00000  Uiso   1.00
C4     C     0.83163   0.65729   0.49599   0.00000  Uiso   1.00
C5     C     0.84411   0.74444   0.44205   0.00000  Uiso   1.00
C6     C     0.72869   0.46191   0.56710   0.00000  Uiso   1.00
C7     C     0.67768   0.46285   0.60114   0.00000  Uiso   1.00
C8     C     0.61215   0.43168   0.59148   0.00000  Uiso   1.00
C9     C     0.49764   0.38822   0.59282   0.00000  Uiso   1.00
C10    C     0.85464   0.43176   0.55930   0.00000  Uiso   1.00
C11    C     0.90952   0.40733   0.58679   0.00000  Uiso   1.00
C12    C     0.95003   0.35076   0.57056   0.00000  Uiso   1.00
C13    C     0.03108   0.26049   0.55979   0.00000  Uiso   1.00
C14    C     0.77815   0.43588   0.49270   0.00000  Uiso   1.00
C15    C     0.79657   0.51502   0.48932   0.00000  Uiso   1.00
C16    C     0.79989   0.55455   0.44968   0.00000  Uiso   1.00
C17    C     0.81767   0.62625   0.45372   0.00000  Uiso   1.00
C18    C     0.71475   0.43093   0.52491   0.00000  Uiso   1.00
C19    C     0.64929   0.39974   0.51521   0.00000  Uiso   1.00
C20    C     0.59819   0.40064   0.54922   0.00000  Uiso   1.00
C21    C     0.84071   0.40078   0.51711   0.00000  Uiso   1.00
C22    C     0.88114   0.34423   0.50085   0.00000  Uiso   1.00
C23    C     0.93607   0.31972   0.52830   0.00000  Uiso   1.00
H24    H     0.81465   0.51704   0.60322   0.00000  Uiso   1.00
H25    H     0.83905   0.64162   0.56827   0.00000  Uiso   1.00
H26    H     0.68848   0.48682   0.63379   0.00000  Uiso   1.00
H27    H     0.92029   0.43132   0.61943   0.00000  Uiso   1.00
H28    H     0.85993   0.76608   0.51091   0.00000  Uiso   1.00
H29    H     0.54245   0.43967   0.64907   0.00000  Uiso   1.00
H30    H     0.03126   0.32262   0.61879   0.00000  Uiso   1.00
H31    H     0.76730   0.41176   0.45986   0.00000  Uiso   1.00
H32    H     0.78911   0.53056   0.41703   0.00000  Uiso   1.00
H33    H     0.63853   0.37577   0.48255   0.00000  Uiso   1.00
H34    H     0.87034   0.32027   0.46820   0.00000  Uiso   1.00
H35    H     0.81939   0.67594   0.38816   0.00000  Uiso   1.00
H36    H     0.50191   0.34953   0.52632   0.00000  Uiso   1.00
H37    H     0.99072   0.23249   0.49605   0.00000  Uiso   1.00
O38    O     0.85483   0.80107   0.42395   0.00000  Uiso   1.00
O39    O     0.43831   0.37282   0.60521   0.00000  Uiso   1.00
O40    O     0.07963   0.21926   0.56549   0.00000  Uiso   1.00
N41    N     0.84741   0.72856   0.48790   0.00000  Uiso   1.00
N42    N     0.55058   0.42339   0.61706   0.00000  Uiso   1.00
N43    N     0.00757   0.31395   0.58877   0.00000  Uiso   1.00
N44    N     0.82560   0.68006   0.42185   0.00000  Uiso   1.00
N45    N     0.52877   0.37489   0.55101   0.00000  Uiso   1.00
N46    N     0.98576   0.26545   0.52272   0.00000  Uiso   1.00
C47    C     0.30381   0.99292   0.07038   0.00000  Uiso   1.00
C48    C     0.31050   0.04601   0.03150   0.00000  Uiso   1.00
C49    C     0.32828   0.11766   0.03561   0.00000  Uiso   1.00
C50    C     0.33163   0.15729   0.99599   0.00000  Uiso   1.00
C51    C     0.34411   0.24444   0.94205   0.00000  Uiso   1.00
C52    C     0.22869   0.96191   0.06710   0.00000  Uiso   1.00
C53    C     0.17768   0.96285   0.10114   0.00000  Uiso   1.00
C54    C     0.11215   0.93168   0.09148   0.00000  Uiso   1.00
C55    C     0.99764   0.88822   0.09282   0.00000  Uiso   1.00
C56    C     0.35464   0.93176   0.05930   0.00000  Uiso   1.00
C57    C     0.40952   0.90733   0.08679   0.00000  Uiso   1.00
C58    C     0.45003   0.85076   0.07056   0.00000  Uiso   1.00
C59    C     0.53108   0.76049   0.05979   0.00000  Uiso   1.00
C60    C     0.27815   0.93588   0.99270   0.00000  Uiso   1.00
C61    C     0.29657   0.01502   0.98932   0.00000  Uiso   1.00
C62    C     0.29989   0.05455   0.94968   0.00000  Uiso   1.00
C63    C     0.31767   0.12625   0.95372   0.00000  Uiso   1.00
C64    C     0.21475   0.93093   0.02491   0.00000  Uiso   1.00
C65    C     0.14929   0.89974   0.01521   0.00000  Uiso   1.00
C66    C     0.09819   0.90064   0.04922   0.00000  Uiso   1.00
C67    C     0.34071   0.90078   0.01711   0.00000  Uiso   1.00
C68    C     0.38114   0.84423   0.00085   0.00000  Uiso   1.00
C69    C     0.43607   0.81972   0.02830   0.00000  Uiso   1.00
H70    H     0.31465   0.01704   0.10322   0.00000  Uiso   1.00
H71    H     0.33905   0.14162   0.06827   0.00000  Uiso   1.00
H72    H     0.18848   0.98682   0.13379   0.00000  Uiso   1.00
H73    H     0.42029   0.93132   0.11943   0.00000  Uiso   1.00
H74    H     0.35993   0.26608   0.01091   0.00000  Uiso   1.00
H75    H     0.04245   0.93967   0.14907   0.00000  Uiso   1.00
H76    H     0.53126   0.82262   0.11879   0.00000  Uiso   1.00
H77    H     0.26730   0.91176   0.95986   0.00000  Uiso   1.00
H78    H     0.28911   0.03056   0.91703   0.00000  Uiso   1.00
H79    H     0.13853   0.87577   0.98255   0.00000  Uiso   1.00
H80    H     0.37034   0.82027   0.96820   0.00000  Uiso   1.00
H81    H     0.31939   0.17594   0.88816   0.00000  Uiso   1.00
H82    H     0.00191   0.84953   0.02632   0.00000  Uiso   1.00
H83    H     0.49072   0.73249   0.99605   0.00000  Uiso   1.00
O84    O     0.35483   0.30107   0.92395   0.00000  Uiso   1.00
O85    O     0.93831   0.87282   0.10521   0.00000  Uiso   1.00
O86    O     0.57963   0.71926   0.06549   0.00000  Uiso   1.00
N87    N     0.34741   0.22856   0.98790   0.00000  Uiso   1.00
N88    N     0.05058   0.92339   0.11706   0.00000  Uiso   1.00
N89    N     0.50757   0.81395   0.08877   0.00000  Uiso   1.00
N90    N     0.32560   0.18006   0.92185   0.00000  Uiso   1.00
N91    N     0.02877   0.87489   0.05101   0.00000  Uiso   1.00
N92    N     0.48576   0.76545   0.02272   0.00000  Uiso   1.00
C93    C     0.69619   0.00708   0.07038   0.00000  Uiso   1.00
C94    C     0.68950   0.95399   0.03150   0.00000  Uiso   1.00
C95    C     0.67172   0.88234   0.03561   0.00000  Uiso   1.00
C96    C     0.66837   0.84271   0.99599   0.00000  Uiso   1.00
C97    C     0.65589   0.75556   0.94205   0.00000  Uiso   1.00
C98    C     0.77131   0.03809   0.06710   0.00000  Uiso   1.00
C99    C     0.82232   0.03715   0.10114   0.00000  Uiso   1.00
C100   C     0.88785   0.06832   0.09148   0.00000  Uiso   1.00
C101   C     0.00236   0.11178   0.09282   0.00000  Uiso   1.00
C102   C     0.64536   0.06824   0.05930   0.00000  Uiso   1.00
C103   C     0.59048   0.09267   0.08679   0.00000  Uiso   1.00
C104   C     0.54997   0.14924   0.07056   0.00000  Uiso   1.00
C105   C     0.46892   0.23951   0.05979   0.00000  Uiso   1.00
C106   C     0.72185   0.06412   0.99270   0.00000  Uiso   1.00
C107   C     0.70343   0.98498   0.98932   0.00000  Uiso   1.00
C108   C     0.70011   0.94545   0.94968   0.00000  Uiso   1.00
C109   C     0.68233   0.87375   0.95372   0.00000  Uiso   1.00
C110   C     0.78525   0.06907   0.02491   0.00000  Uiso   1.00
C111   C     0.85071   0.10026   0.01521   0.00000  Uiso   1.00
C112   C     0.90181   0.09936   0.04922   0.00000  Uiso   1.00
C113   C     0.65929   0.09922   0.01711   0.00000  Uiso   1.00
C114   C     0.61886   0.15577   0.00085   0.00000  Uiso   1.00
C115   C     0.56393   0.18028   0.02830   0.00000  Uiso   1.00
H116   H     0.68535   0.98296   0.10322   0.00000  Uiso   1.00
H117   H     0.66095   0.85838   0.06827   0.00000  Uiso   1.00
H118   H     0.81152   0.01318   0.13379   0.00000  Uiso   1.00
H119   H     0.57971   0.06868   0.11943   0.00000  Uiso   1.00
H120   H     0.64007   0.73392   0.01091   0.00000  Uiso   1.00
H121   H     0.95755   0.06033   0.14907   0.00000  Uiso   1.00
H122   H     0.46874   0.17738   0.11879   0.00000  Uiso   1.00
H123   H     0.73270   0.08824   0.95986   0.00000  Uiso   1.00
H124   H     0.71089   0.96944   0.91703   0.00000  Uiso   1.00
H125   H     0.86147   0.12423   0.98255   0.00000  Uiso   1.00
H126   H     0.62966   0.17973   0.96820   0.00000  Uiso   1.00
H127   H     0.68061   0.82406   0.88816   0.00000  Uiso   1.00
H128   H     0.99809   0.15047   0.02632   0.00000  Uiso   1.00
H129   H     0.50928   0.26751   0.99605   0.00000  Uiso   1.00
O130   O     0.64517   0.69893   0.92395   0.00000  Uiso   1.00
O131   O     0.06169   0.12718   0.10521   0.00000  Uiso   1.00
O132   O     0.42037   0.28074   0.06549   0.00000  Uiso   1.00
N133   N     0.65259   0.77144   0.98790   0.00000  Uiso   1.00
N134   N     0.94942   0.07661   0.11706   0.00000  Uiso   1.00
N135   N     0.49243   0.18605   0.08877   0.00000  Uiso   1.00
N136   N     0.67440   0.81994   0.92185   0.00000  Uiso   1.00
N137   N     0.97123   0.12511   0.05101   0.00000  Uiso   1.00
N138   N     0.51424   0.23455   0.02272   0.00000  Uiso   1.00
C139   C     0.19619   0.50708   0.57038   0.00000  Uiso   1.00
C140   C     0.18950   0.45399   0.53150   0.00000  Uiso   1.00
C141   C     0.17172   0.38234   0.53561   0.00000  Uiso   1.00
C142   C     0.16837   0.34271   0.49599   0.00000  Uiso   1.00
C143   C     0.15589   0.25556   0.44205   0.00000  Uiso   1.00
C144   C     0.27131   0.53809   0.56710   0.00000  Uiso   1.00
C145   C     0.32232   0.53715   0.60114   0.00000  Uiso   1.00
C146   C     0.38785   0.56832   0.59148   0.00000  Uiso   1.00
C147   C     0.50236   0.61178   0.59282   0.00000  Uiso   1.00
C148   C     0.14536   0.56824   0.55930   0.00000  Uiso   1.00
C149   C     0.09048   0.59267   0.58679   0.00000  Uiso   1.00
C150   C     0.04997   0.64924   0.57056   0.00000  Uiso   1.00
C151   C     0.96892   0.73951   0.55979   0.00000  Uiso   1.00
C152   C     0.22185   0.56412   0.49270   0.00000  Uiso   1.00
C153   C     0.20343   0.48498   0.48932   0.00000  Uiso   1.00
C154   C     0.20011   0.44545   0.44968   0.00000  Uiso   1.00
C155   C     0.18233   0.37375   0.45372   0.00000  Uiso   1.00
C156   C     0.28525   0.56907   0.52491   0.00000  Uiso   1.00
C157   C     0.35071   0.60026   0.51521   0.00000  Uiso   1.00
C158   C     0.40181   0.59936   0.54922   0.00000  Uiso   1.00
C159   C     0.15929   0.59922   0.51711   0.00000  Uiso   1.00
C160   C     0.11886   0.65577   0.50085   0.00000  Uiso   1.00
C161   C     0.06393   0.68028   0.52830   0.00000  Uiso   1.00
H162   H     0.18535   0.48296   0.60322   0.00000  Uiso   1.00
H163   H     0.16095   0.35838   0.56827   0.00000  Uiso   1.00
H164   H     0.31152   0.51318   0.63379   0.00000  Uiso   1.00
H165   H     0.07971   0.56868   0.61943   0.00000  Uiso   1.00
H166   H     0.14007   0.23392   0.51091   0.00000  Uiso   1.00
H167   H     0.45755   0.56033   0.64907   0.00000  Uiso   1.00
H168   H     0.96874   0.67738   0.61879   0.00000  Uiso   1.00
H169   H     0.23270   0.58824   0.45986   0.00000  Uiso   1.00
H170   H     0.21089   0.46944   0.41703   0.00000  Uiso   1.00
H171   H     0.36147   0.62423   0.48255   0.00000  Uiso   1.00
H172   H     0.12966   0.67973   0.46820   0.00000  Uiso   1.00
H173   H     0.18061   0.32406   0.38816   0.00000  Uiso   1.00
H174   H     0.49809   0.65047   0.52632   0.00000  Uiso   1.00
H175   H     0.00928   0.76751   0.49605   0.00000  Uiso   1.00
O176   O     0.14517   0.19893   0.42395   0.00000  Uiso   1.00
O177   O     0.56169   0.62718   0.60521   0.00000  Uiso   1.00
O178   O     0.92037   0.78074   0.56549   0.00000  Uiso   1.00
N179   N     0.15259   0.27144   0.48790   0.00000  Uiso   1.00
N180   N     0.44942   0.57661   0.61706   0.00000  Uiso   1.00
N181   N     0.99243   0.68605   0.58877   0.00000  Uiso   1.00
N182   N     0.17440   0.31994   0.42185   0.00000  Uiso   1.00
N183   N     0.47123   0.62511   0.55101   0.00000  Uiso   1.00
N184   N     0.01424   0.73455   0.52272   0.00000  Uiso   1.00
C185   C     0.50708   0.30381   0.82038   0.00000  Uiso   1.00
C186   C     0.45399   0.31050   0.78150   0.00000  Uiso   1.00
C187   C     0.38234   0.32828   0.78561   0.00000  Uiso   1.00
C188   C     0.34271   0.33163   0.74599   0.00000  Uiso   1.00
C189   C     0.25556   0.34411   0.69205   0.00000  Uiso   1.00
C190   C     0.53809   0.22869   0.81710   0.00000  Uiso   1.00
C191   C     0.53715   0.17768   0.85114   0.00000  Uiso   1.00
C192   C     0.56832   0.11215   0.84148   0.00000  Uiso   1.00
C193   C     0.61178   0.99764   0.84282   0.00000  Uiso   1.00
C194   C     0.56824   0.35464   0.80930   0.00000  Uiso   1.00
C195   C     0.59267   0.40952   0.83679   0.00000  Uiso   1.00
C196   C     0.64924   0.45003   0.82056   0.00000  Uiso   1.00
C197   C     0.73951   0.53108   0.80979   0.00000  Uiso   1.00
C198   C     0.56412   0.27815   0.74270   0.00000  Uiso   1.00
C199   C     0.48498   0.29657   0.73932   0.00000  Uiso   1.00
C200   C     0.44545   0.29989   0.69968   0.00000  Uiso   1.00
C201   C     0.37375   0.31767   0.70372   0.00000  Uiso   1.00
C202   C     0.56907   0.21475   0.77491   0.00000  Uiso   1.00
C203   C     0.60026   0.14929   0.76521   0.00000  Uiso   1.00
C204   C     0.59936   0.09819   0.79922   0.00000  Uiso   1.00
C205   C     0.59922   0.34071   0.76711   0.00000  Uiso   1.00
C206   C     0.65577   0.38114   0.75085   0.00000  Uiso   1.00
C207   C     0.68028   0.43607   0.77830   0.00000  Uiso   1.00
H208   H     0.48296   0.31465   0.85322   0.00000  Uiso   1.00
H209   H     0.35838   0.33905   0.81827   0.00000  Uiso   1.00
H210   H     0.51318   0.18848   0.88379   0.00000  Uiso   1.00
H211   H     0.56868   0.42029   0.86943   0.00000  Uiso   1.00
H212   H     0.23392   0.35993   0.76091   0.00000  Uiso   1.00
H213   H     0.56033   0.04245   0.89907   0.00000  Uiso   1.00
H214   H     0.67738   0.53126   0.86879   0.00000  Uiso   1.00
H215   H     0.58824   0.26730   0.70986   0.00000  Uiso   1.00
H216   H     0.46944   0.28911   0.66703   0.00000  Uiso   1.00
H217   H     0.62423   0.13853   0.73255   0.00000  Uiso   1.00
H218   H     0.67973   0.37034   0.71820   0.00000  Uiso   1.00
H219   H     0.32406   0.31939   0.63816   0.00000  Uiso   1.00
H220   H     0.65047   0.00191   0.77632   0.00000  Uiso   1.00
H221   H     0.76751   0.49072   0.74605   0.00000  Uiso   1.00
O222   O     0.19893   0.35483   0.67395   0.00000  Uiso   1.00
O223   O     0.62718   0.93831   0.85521   0.00000  Uiso   1.00
O224   O     0.78074   0.57963   0.81549   0.00000  Uiso   1.00
N225   N     0.27144   0.34741   0.73790   0.00000  Uiso   1.00
N226   N     0.57661   0.05058   0.86706   0.00000  Uiso   1.00
N227   N     0.68605   0.50757   0.83877   0.00000  Uiso   1.00
N228   N     0.31994   0.32560   0.67185   0.00000  Uiso   1.00
N229   N     0.62511   0.02877   0.80101   0.00000  Uiso   1.00
N230   N     0.73455   0.48576   0.77272   0.00000  Uiso   1.00
C231   C     0.00708   0.80381   0.32038   0.00000  Uiso   1.00
C232   C     0.95399   0.81050   0.28150   0.00000  Uiso   1.00
C233   C     0.88234   0.82828   0.28561   0.00000  Uiso   1.00
C234   C     0.84271   0.83163   0.24599   0.00000  Uiso   1.00
C235   C     0.75556   0.84411   0.19205   0.00000  Uiso   1.00
C236   C     0.03809   0.72869   0.31710   0.00000  Uiso   1.00
C237   C     0.03715   0.67768   0.35114   0.00000  Uiso   1.00
C238   C     0.06832   0.61215   0.34148   0.00000  Uiso   1.00
C239   C     0.11178   0.49764   0.34282   0.00000  Uiso   1.00
C240   C     0.06824   0.85464   0.30930   0.00000  Uiso   1.00
C241   C     0.09267   0.90952   0.33679   0.00000  Uiso   1.00
C242   C     0.14924   0.95003   0.32056   0.00000  Uiso   1.00
C243   C     0.23951   0.03108   0.30979   0.00000  Uiso   1.00
C244   C     0.06412   0.77815   0.24270   0.00000  Uiso   1.00
C245   C     0.98498   0.79657   0.23932   0.00000  Uiso   1.00
C246   C     0.94545   0.79989   0.19968   0.00000  Uiso   1.00
C247   C     0.87375   0.81767   0.20372   0.00000  Uiso   1.00
C248   C     0.06907   0.71475   0.27491   0.00000  Uiso   1.00
C249   C     0.10026   0.64929   0.26521   0.00000  Uiso   1.00
C250   C     0.09936   0.59819   0.29922   0.00000  Uiso   1.00
C251   C     0.09922   0.84071   0.26711   0.00000  Uiso   1.00
C252   C     0.15577   0.88114   0.25085   0.00000  Uiso   1.00
C253   C     0.18028   0.93607   0.27830   0.00000  Uiso   1.00
H254   H     0.98296   0.81465   0.35322   0.00000  Uiso   1.00
H255   H     0.85838   0.83905   0.31827   0.00000  Uiso   1.00
H256   H     0.01318   0.68848   0.38379   0.00000  Uiso   1.00
H257   H     0.06868   0.92029   0.36943   0.00000  Uiso   1.00
H258   H     0.73392   0.85993   0.26091   0.00000  Uiso   1.00
H259   H     0.06033   0.54245   0.39907   0.00000  Uiso   1.00
H260   H     0.17738   0.03126   0.36879   0.00000  Uiso   1.00
H261   H     0.08824   0.76730   0.20986   0.00000  Uiso   1.00
H262   H     0.96944   0.78911   0.16703   0.00000  Uiso   1.00
H263   H     0.12423   0.63853   0.23255   0.00000  Uiso   1.00
H264   H     0.17973   0.87034   0.21820   0.00000  Uiso   1.00
H265   H     0.82406   0.81939   0.13816   0.00000  Uiso   1.00
H266   H     0.15047   0.50191   0.27632   0.00000  Uiso   1.00
H267   H     0.26751   0.99072   0.24605   0.00000  Uiso   1.00
O268   O     0.69893   0.85483   0.17395   0.00000  Uiso   1.00
O269   O     0.12718   0.43831   0.35521   0.00000  Uiso   1.00
O270   O     0.28074   0.07963   0.31549   0.00000  Uiso   1.00
N271   N     0.77144   0.84741   0.23790   0.00000  Uiso   1.00
N272   N     0.07661   0.55058   0.36706   0.00000  Uiso   1.00
N273   N     0.18605   0.00757   0.33877   0.00000  Uiso   1.00
N274   N     0.81994   0.82560   0.17185   0.00000  Uiso   1.00
N275   N     0.12511   0.52877   0.30101   0.00000  Uiso   1.00
N276   N     0.23455   0.98576   0.27272   0.00000  Uiso   1.00
C277   C     0.99292   0.19619   0.32038   0.00000  Uiso   1.00
C278   C     0.04601   0.18950   0.28150   0.00000  Uiso   1.00
C279   C     0.11766   0.17172   0.28561   0.00000  Uiso   1.00
C280   C     0.15729   0.16837   0.24599   0.00000  Uiso   1.00
C281   C     0.24444   0.15589   0.19205   0.00000  Uiso   1.00
C282   C     0.96191   0.27131   0.31710   0.00000  Uiso   1.00
C283   C     0.96285   0.32232   0.35114   0.00000  Uiso   1.00
C284   C     0.93168   0.38785   0.34148   0.00000  Uiso   1.00
C285   C     0.88822   0.50236   0.34282   0.00000  Uiso   1.00
C286   C     0.93176   0.14536   0.30930   0.00000  Uiso   1.00
C287   C     0.90733   0.09048   0.33679   0.00000  Uiso   1.00
C288   C     0.85076   0.04997   0.32056   0.00000  Uiso   1.00
C289   C     0.76049   0.96892   0.30979   0.00000  Uiso   1.00
C290   C     0.93588   0.22185   0.24270   0.00000  Uiso   1.00
C291   C     0.01502   0.20343   0.23932   0.00000  Uiso   1.00
C292   C     0.05455   0.20011   0.19968   0.00000  Uiso   1.00
C293   C     0.12625   0.18233   0.20372   0.00000  Uiso   1.00
C294   C     0.93093   0.28525   0.27491   0.00000  Uiso   1.00
C295   C     0.89974   0.35071   0.26521   0.00000  Uiso   1.00
C296   C     0.90064   0.40181   0.29922   0.00000  Uiso   1.00
C297   C     0.90078   0.15929   0.26711   0.00000  Uiso   1.00
C298   C     0.84423   0.11886   0.25085   0.00000  Uiso   1.00
C299   C     0.81972   0.06393   0.27830   0.00000  Uiso   1.00
H300   H     0.01704   0.18535   0.35322   0.00000  Uiso   1.00
H301   H     0.14162   0.16095   0.31827   0.00000  Uiso   1.00
H302   H     0.98682   0.31152   0.38379   0.00000  Uiso   1.00
H303   H     0.93132   0.07971   0.36943   0.00000  Uiso   1.00
H304   H     0.26608   0.14007   0.26091   0.00000  Uiso   1.00
H305   H     0.93967   0.45755   0.39907   0.00000  Uiso   1.00
H306   H     0.82262   0.96874   0.36879   0.00000  Uiso   1.00
H307   H     0.91176   0.23270   0.20986   0.00000  Uiso   1.00
H308   H     0.03056   0.21089   0.16703   0.00000  Uiso   1.00
H309   H     0.87577   0.36147   0.23255   0.00000  Uiso   1.00
H310   H     0.82027   0.12966   0.21820   0.00000  Uiso   1.00
H311   H     0.17594   0.18061   0.13816   0.00000  Uiso   1.00
H312   H     0.84953   0.49809   0.27632   0.00000  Uiso   1.00
H313   H     0.73249   0.00928   0.24605   0.00000  Uiso   1.00
O314   O     0.30107   0.14517   0.17395   0.00000  Uiso   1.00
O315   O     0.87282   0.56169   0.35521   0.00000  Uiso   1.00
O316   O     0.71926   0.92037   0.31549   0.00000  Uiso   1.00
N317   N     0.22856   0.15259   0.23790   0.00000  Uiso   1.00
N318   N     0.92339   0.44942   0.36706   0.00000  Uiso   1.00
N319   N     0.81395   0.99243   0.33877   0.00000  Uiso   1.00
N320   N     0.18006   0.17440   0.17185   0.00000  Uiso   1.00
N321   N     0.87489   0.47123   0.30101   0.00000  Uiso   1.00
N322   N     0.76545   0.01424   0.27272   0.00000  Uiso   1.00
C323   C     0.49292   0.69619   0.82038   0.00000  Uiso   1.00
C324   C     0.54601   0.68950   0.78150   0.00000  Uiso   1.00
C325   C     0.61766   0.67172   0.78561   0.00000  Uiso   1.00
C326   C     0.65729   0.66837   0.74599   0.00000  Uiso   1.00
C327   C     0.74444   0.65589   0.69205   0.00000  Uiso   1.00
C328   C     0.46191   0.77131   0.81710   0.00000  Uiso   1.00
C329   C     0.46285   0.82232   0.85114   0.00000  Uiso   1.00
C330   C     0.43168   0.88785   0.84148   0.00000  Uiso   1.00
C331   C     0.38822   0.00236   0.84282   0.00000  Uiso   1.00
C332   C     0.43176   0.64536   0.80930   0.00000  Uiso   1.00
C333   C     0.40733   0.59048   0.83679   0.00000  Uiso   1.00
C334   C     0.35076   0.54997   0.82056   0.00000  Uiso   1.00
C335   C     0.26049   0.46892   0.80979   0.00000  Uiso   1.00
C336   C     0.43588   0.72185   0.74270   0.00000  Uiso   1.00
C337   C     0.51502   0.70343   0.73932   0.00000  Uiso   1.00
C338   C     0.55455   0.70011   0.69968   0.00000  Uiso   1.00
C339   C     0.62625   0.68233   0.70372   0.00000  Uiso   1.00
C340   C     0.43093   0.78525   0.77491   0.00000  Uiso   1.00
C341   C     0.39974   0.85071   0.76521   0.00000  Uiso   1.00
C342   C     0.40064   0.90181   0.79922   0.00000  Uiso   1.00
C343   C     0.40078   0.65929   0.76711   0.00000  Uiso   1.00
C344   C     0.34423   0.61886   0.75085   0.00000  Uiso   1.00
C345   C     0.31972   0.56393   0.77830   0.00000  Uiso   1.00
H346   H     0.51704   0.68535   0.85322   0.00000  Uiso   1.00
H347   H     0.64162   0.66095   0.81827   0.00000  Uiso   1.00
H348   H     0.48682   0.81152   0.88379   0.00000  Uiso   1.00
H349   H     0.43132   0.57971   0.86943   0.00000  Uiso   1.00
H350   H     0.76608   0.64007   0.76091   0.00000  Uiso   1.00
H351   H     0.43967   0.95755   0.89907   0.00000  Uiso   1.00
H352   H     0.32262   0.46874   0.86879   0.00000  Uiso   1.00
H353   H     0.41176   0.73270   0.70986   0.00000  Uiso   1.00
H354   H     0.53056   0.71089   0.66703   0.00000  Uiso   1.00
H355   H     0.37577   0.86147   0.73255   0.00000  Uiso   1.00
H356   H     0.32027   0.62966   0.71820   0.00000  Uiso   1.00
H357   H     0.67594   0.68061   0.63816   0.00000  Uiso   1.00
H358   H     0.34953   0.99809   0.77632   0.00000  Uiso   1.00
H359   H     0.23249   0.50928   0.74605   0.00000  Uiso   1.00
O360   O     0.80107   0.64517   0.67395   0.00000  Uiso   1.00
O361   O     0.37282   0.06169   0.85521   0.00000  Uiso   1.00
O362   O     0.21926   0.42037   0.81549   0.00000  Uiso   1.00
N363   N     0.72856   0.65259   0.73790   0.00000  Uiso   1.00
N364   N     0.42339   0.94942   0.86706   0.00000  Uiso   1.00
N365   N     0.31395   0.49243   0.83877   0.00000  Uiso   1.00
N366   N     0.68006   0.67440   0.67185   0.00000  Uiso   1.00
N367   N     0.37489   0.97123   0.80101   0.00000  Uiso   1.00
N368   N     0.26545   0.51424   0.77272   0.00000  Uiso   1.00
C369   C     0.19619   0.00708   0.67962   0.00000  Uiso   1.00
C370   C     0.18950   0.95399   0.71850   0.00000  Uiso   1.00
C371   C     0.17172   0.88234   0.71439   0.00000  Uiso   1.00
C372   C     0.16837   0.84271   0.75401   0.00000  Uiso   1.00
C373   C     0.15589   0.75556   0.80795   0.00000  Uiso   1.00
C374   C     0.27131   0.03809   0.68290   0.00000  Uiso   1.00
C375   C     0.32232   0.03715   0.64886   0.00000  Uiso   1.00
C376   C     0.38785   0.06832   0.65852   0.00000  Uiso   1.00
C377   C     0.50236   0.11178   0.65718   0.00000  Uiso   1.00
C378   C     0.14536   0.06824   0.69070   0.00000  Uiso   1.00
C379   C     0.09048   0.09267   0.66321   0.00000  Uiso   1.00
C380   C     0.04997   0.14924   0.67944   0.00000  Uiso   1.00
C381   C     0.96892   0.23951   0.69021   0.00000  Uiso   1.00
C382   C     0.22185   0.06412   0.75730   0.00000  Uiso   1.00
C383   C     0.20343   0.98498   0.76068   0.00000  Uiso   1.00
C384   C     0.20011   0.94545   0.80032   0.00000  Uiso   1.00
C385   C     0.18233   0.87375   0.79628   0.00000  Uiso   1.00
C386   C     0.28525   0.06907   0.72509   0.00000  Uiso   1.00
C387   C     0.35071   0.10026   0.73479   0.00000  Uiso   1.00
C388   C     0.40181   0.09936   0.70078   0.00000  Uiso   1.00
C389   C     0.15929   0.09922   0.73289   0.00000  Uiso   1.00
C390   C     0.11886   0.15577   0.74915   0.00000  Uiso   1.00
C391   C     0.06393   0.18028   0.72170   0.00000  Uiso   1.00
H392   H     0.18535   0.98296   0.64678   0.00000  Uiso   1.00
H393   H     0.16095   0.85838   0.68173   0.00000  Uiso   1.00
H394   H     0.31152   0.01318   0.61621   0.00000  Uiso   1.00
H395   H     0.07971   0.06868   0.63057   0.00000  Uiso   1.00
H396   H     0.14007   0.73392   0.73909   0.00000  Uiso   1.00
H397   H     0.45755   0.06033   0.60093   0.00000  Uiso   1.00
H398   H     0.96874   0.17738   0.63121   0.00000  Uiso   1.00
H399   H     0.23270   0.08824   0.79014   0.00000  Uiso   1.00
H400   H     0.21089   0.96944   0.83297   0.00000  Uiso   1.00
H401   H     0.36147   0.12423   0.76745   0.00000  Uiso   1.00
H402   H     0.12966   0.17973   0.78180   0.00000  Uiso   1.00
H403   H     0.18061   0.82406   0.86184   0.00000  Uiso   1.00
H404   H     0.49809   0.15047   0.72368   0.00000  Uiso   1.00
H405   H     0.00928   0.26751   0.75395   0.00000  Uiso   1.00
O406   O     0.14517   0.69893   0.82605   0.00000  Uiso   1.00
O407   O     0.56169   0.12718   0.64479   0.00000  Uiso   1.00
O408   O     0.92037   0.28074   0.68451   0.00000  Uiso   1.00
N409   N     0.15259   0.77144   0.76210   0.00000  Uiso   1.00
N410   N     0.44942   0.07661   0.63294   0.00000  Uiso   1.00
N411   N     0.99243   0.18605   0.66123   0.00000  Uiso   1.00
N412   N     0.17440   0.81994   0.82815   0.00000  Uiso   1.00
N413   N     0.47123   0.12511   0.69899   0.00000  Uiso   1.00
N414   N     0.01424   0.23455   0.72728   0.00000  Uiso   1.00
C415   C     0.69619   0.50708   0.17962   0.00000  Uiso   1.00
C416   C     0.68950   0.45399   0.21850   0.00000  Uiso   1.00
C417   C     0.67172   0.38234   0.21439   0.00000  Uiso   1.00
C418   C     0.66837   0.34271   0.25401   0.00000  Uiso   1.00
C419   C     0.65589   0.25556   0.30795   0.00000  Uiso   1.00
C420   C     0.77131   0.53809   0.18290   0.00000  Uiso   1.00
C421   C     0.82232   0.53715   0.14886   0.00000  Uiso   1.00
C422   C     0.88785   0.56832   0.15852   0.00000  Uiso   1.00
C423   C     0.00236   0.61178   0.15718   0.00000  Uiso   1.00
C424   C     0.64536   0.56824   0.19070   0.00000  Uiso   1.00
C425   C     0.59048   0.59267   0.16321   0.00000  Uiso   1.00
C426   C     0.54997   0.64924   0.17944   0.00000  Uiso   1.00
C427   C     0.46892   0.73951   0.19021   0.00000  Uiso   1.00
C428   C     0.72185   0.56412   0.25730   0.00000  Uiso   1.00
C429   C     0.70343   0.48498   0.26068   0.00000  Uiso   1.00
C430   C     0.70011   0.44545   0.30032   0.00000  Uiso   1.00
C431   C     0.68233   0.37375   0.29628   0.00000  Uiso   1.00
C432   C     0.78525   0.56907   0.22509   0.00000  Uiso   1.00
C433   C     0.85071   0.60026   0.23479   0.00000  Uiso   1.00
C434   C     0.90181   0.59936   0.20078   0.00000  Uiso   1.00
C435   C     0.65929   0.59922   0.23289   0.00000  Uiso   1.00
C436   C     0.61886   0.65577   0.24915   0.00000  Uiso   1.00
C437   C     0.56393   0.68028   0.22170   0.00000  Uiso   1.00
H438   H     0.68535   0.48296   0.14678   0.00000  Uiso   1.00
H439   H     0.66095   0.35838   0.18173   0.00000  Uiso   1.00
H440   H     0.81152   0.51318   0.11621   0.00000  Uiso   1.00
H441   H     0.57971   0.56868   0.13057   0.00000  Uiso   1.00
H442   H     0.64007   0.23392   0.23909   0.00000  Uiso   1.00
H443   H     0.95755   0.56033   0.10093   0.00000  Uiso   1.00
H444   H     0.46874   0.67738   0.13121   0.00000  Uiso   1.00
H445   H     0.73270   0.58824   0.29014   0.00000  Uiso   1.00
H446   H     0.71089   0.46944   0.33297   0.00000  Uiso   1.00
H447   H     0.86147   0.62423   0.26745   0.00000  Uiso   1.00
H448   H     0.62966   0.67973   0.28180   0.00000  Uiso   1.00
H449   H     0.68061   0.32406   0.36184   0.00000  Uiso   1.00
H450   H     0.99809   0.65047   0.22368   0.00000  Uiso   1.00
H451   H     0.50928   0.76751   0.25395   0.00000  Uiso   1.00
O452   O     0.64517   0.19893   0.32605   0.00000  Uiso   1.00
O453   O     0.06169   0.62718   0.14479   0.00000  Uiso   1.00
O454   O     0.42037   0.78074   0.18451   0.00000  Uiso   1.00
N455   N     0.65259   0.27144   0.26210   0.00000  Uiso   1.00
N456   N     0.94942   0.57661   0.13294   0.00000  Uiso   1.00
N457   N     0.49243   0.68605   0.16123   0.00000  Uiso   1.00
N458   N     0.67440   0.31994   0.32815   0.00000  Uiso   1.00
N459   N     0.97123   0.62511   0.19899   0.00000  Uiso   1.00
N460   N     0.51424   0.73455   0.22728   0.00000  Uiso   1.00
C461   C     0.30381   0.49292   0.17962   0.00000  Uiso   1.00
C462   C     0.31050   0.54601   0.21850   0.00000  Uiso   1.00
C463   C     0.32828   0.61766   0.21439   0.00000  Uiso   1.00
C464   C     0.33163   0.65729   0.25401   0.00000  Uiso   1.00
C465   C     0.34411   0.74444   0.30795   0.00000  Uiso   1.00
C466   C     0.22869   0.46191   0.18290   0.00000  Uiso   1.00
C467   C     0.17768   0.46285   0.14886   0.00000  Uiso   1.00
C468   C     0.11215   0.43168   0.15852   0.00000  Uiso   1.00
C469   C     0.99764   0.38822   0.15718   0.00000  Uiso   1.00
C470   C     0.35464   0.43176   0.19070   0.00000  Uiso   1.00
C471   C     0.40952   0.40733   0.16321   0.00000  Uiso   1.00
C472   C     0.45003   0.35076   0.17944   0.00000  Uiso   1.00
C473   C     0.53108   0.26049   0.19021   0.00000  Uiso   1.00
C474   C     0.27815   0.43588   0.25730   0.00000  Uiso   1.00
C475   C     0.29657   0.51502   0.26068   0.00000  Uiso   1.00
C476   C     0.29989   0.55455   0.30032   0.00000  Uiso   1.00
C477   C     0.31767   0.62625   0.29628   0.00000  Uiso   1.00
C478   C     0.21475   0.43093   0.22509   0.00000  Uiso   1.00
C479   C     0.14929   0.39974   0.23479   0.00000  Uiso   1.00
C480   C     0.09819   0.40064   0.20078   0.00000  Uiso   1.00
C481   C     0.34071   0.40078   0.23289   0.00000  Uiso   1.00
C482   C     0.38114   0.34423   0.24915   0.00000  Uiso   1.00
C483   C     0.43607   0.31972   0.22170   0.00000  Uiso   1.00
H484   H     0.31465   0.51704   0.14678   0.00000  Uiso   1.00
H485   H     0.33905   0.64162   0.18173   0.00000  Uiso   1.00
H486   H     0.18848   0.48682   0.11621   0.00000  Uiso   1.00
H487   H     0.42029   0.43132   0.13057   0.00000  Uiso   1.00
H488   H     0.35993   0.76608   0.23909   0.00000  Uiso   1.00
H489   H     0.04245   0.43967   0.10093   0.00000  Uiso   1.00
H490   H     0.53126   0.32262   0.13121   0.00000  Uiso   1.00
H491   H     0.26730   0.41176   0.29014   0.00000  Uiso   1.00
H492   H     0.28911   0.53056   0.33297   0.00000  Uiso   1.00
H493   H     0.13853   0.37577   0.26745   0.00000  Uiso   1.00
H494   H     0.37034   0.32027   0.28180   0.00000  Uiso   1.00
H495   H     0.31939   0.67594   0.36184   0.00000  Uiso   1.00
H496   H     0.00191   0.34953   0.22368   0.00000  Uiso   1.00
H497   H     0.49072   0.23249   0.25395   0.00000  Uiso   1.00
O498   O     0.35483   0.80107   0.32605   0.00000  Uiso   1.00
O499   O     0.93831   0.37282   0.14479   0.00000  Uiso   1.00
O500   O     0.57963   0.21926   0.18451   0.00000  Uiso   1.00
N501   N     0.34741   0.72856   0.26210   0.00000  Uiso   1.00
N502   N     0.05058   0.42339   0.13294   0.00000  Uiso   1.00
N503   N     0.50757   0.31395   0.16123   0.00000  Uiso   1.00
N504   N     0.32560   0.68006   0.32815   0.00000  Uiso   1.00
N505   N     0.02877   0.37489   0.19899   0.00000  Uiso   1.00
N506   N     0.48576   0.26545   0.22728   0.00000  Uiso   1.00
C507   C     0.80381   0.99292   0.67962   0.00000  Uiso   1.00
C508   C     0.81050   0.04601   0.71850   0.00000  Uiso   1.00
C509   C     0.82828   0.11766   0.71439   0.00000  Uiso   1.00
C510   C     0.83163   0.15729   0.75401   0.00000  Uiso   1.00
C511   C     0.84411   0.24444   0.80795   0.00000  Uiso   1.00
C512   C     0.72869   0.96191   0.68290   0.00000  Uiso   1.00
C513   C     0.67768   0.96285   0.64886   0.00000  Uiso   1.00
C514   C     0.61215   0.93168   0.65852   0.00000  Uiso   1.00
C515   C     0.49764   0.88822   0.65718   0.00000  Uiso   1.00
C516   C     0.85464   0.93176   0.69070   0.00000  Uiso   1.00
C517   C     0.90952   0.90733   0.66321   0.00000  Uiso   1.00
C518   C     0.95003   0.85076   0.67944   0.00000  Uiso   1.00
C519   C     0.03108   0.76049   0.69021   0.00000  Uiso   1.00
C520   C     0.77815   0.93588   0.75730   0.00000  Uiso   1.00
C521   C     0.79657   0.01502   0.76068   0.00000  Uiso   1.00
C522   C     0.79989   0.05455   0.80032   0.00000  Uiso   1.00
C523   C     0.81767   0.12625   0.79628   0.00000  Uiso   1.00
C524   C     0.71475   0.93093   0.72509   0.00000  Uiso   1.00
C525   C     0.64929   0.89974   0.73479   0.00000  Uiso   1.00
C526   C     0.59819   0.90064   0.70078   0.00000  Uiso   1.00
C527   C     0.84071   0.90078   0.73289   0.00000  Uiso   1.00
C528   C     0.88114   0.84423   0.74915   0.00000  Uiso   1.00
C529   C     0.93607   0.81972   0.72170   0.00000  Uiso   1.00
H530   H     0.81465   0.01704   0.64678   0.00000  Uiso   1.00
H531   H     0.83905   0.14162   0.68173   0.00000  Uiso   1.00
H532   H     0.68848   0.98682   0.61621   0.00000  Uiso   1.00
H533   H     0.92029   0.93132   0.63057   0.00000  Uiso   1.00
H534   H     0.85993   0.26608   0.73909   0.00000  Uiso   1.00
H535   H     0.54245   0.93967   0.60093   0.00000  Uiso   1.00
H536   H     0.03126   0.82262   0.63121   0.00000  Uiso   1.00
H537   H     0.76730   0.91176   0.79014   0.00000  Uiso   1.00
H538   H     0.78911   0.03056   0.83297   0.00000  Uiso   1.00
H539   H     0.63853   0.87577   0.76745   0.00000  Uiso   1.00
H540   H     0.87034   0.82027   0.78180   0.00000  Uiso   1.00
H541   H     0.81939   0.17594   0.86184   0.00000  Uiso   1.00
H542   H     0.50191   0.84953   0.72368   0.00000  Uiso   1.00
H543   H     0.99072   0.73249   0.75395   0.00000  Uiso   1.00
O544   O     0.85483   0.30107   0.82605   0.00000  Uiso   1.00
O545   O     0.43831   0.87282   0.64479   0.00000  Uiso   1.00
O546   O     0.07963   0.71926   0.68451   0.00000  Uiso   1.00
N547   N     0.84741   0.22856   0.76210   0.00000  Uiso   1.00
N548   N     0.55058   0.92339   0.63294   0.00000  Uiso   1.00
N549   N     0.00757   0.81395   0.66123   0.00000  Uiso   1.00
N550   N     0.82560   0.18006   0.82815   0.00000  Uiso   1.00
N551   N     0.52877   0.87489   0.69899   0.00000  Uiso   1.00
N552   N     0.98576   0.76545   0.72728   0.00000  Uiso   1.00
C553   C     0.49292   0.19619   0.42962   0.00000  Uiso   1.00
C554   C     0.54601   0.18950   0.46850   0.00000  Uiso   1.00
C555   C     0.61766   0.17172   0.46439   0.00000  Uiso   1.00
C556   C     0.65729   0.16837   0.50401   0.00000  Uiso   1.00
C557   C     0.74444   0.15589   0.55795   0.00000  Uiso   1.00
C558   C     0.46191   0.27131   0.43290   0.00000  Uiso   1.00
C559   C     0.46285   0.32232   0.39886   0.00000  Uiso   1.00
C560   C     0.43168   0.38785   0.40852   0.00000  Uiso   1.00
C561   C     0.38822   0.50236   0.40718   0.00000  Uiso   1.00
C562   C     0.43176   0.14536   0.44070   0.00000  Uiso   1.00
C563   C     0.40733   0.09048   0.41321   0.00000  Uiso   1.00
C564   C     0.35076   0.04997   0.42944   0.00000  Uiso   1.00
C565   C     0.26049   0.96892   0.44021   0.00000  Uiso   1.00
C566   C     0.43588   0.22185   0.50730   0.00000  Uiso   1.00
C567   C     0.51502   0.20343   0.51068   0.00000  Uiso   1.00
C568   C     0.55455   0.20011   0.55032   0.00000  Uiso   1.00
C569   C     0.62625   0.18233   0.54628   0.00000  Uiso   1.00
C570   C     0.43093   0.28525   0.47509   0.00000  Uiso   1.00
C571   C     0.39974   0.35071   0.48479   0.00000  Uiso   1.00
C572   C     0.40064   0.40181   0.45078   0.00000  Uiso   1.00
C573   C     0.40078   0.15929   0.48289   0.00000  Uiso   1.00
C574   C     0.34423   0.11886   0.49915   0.00000  Uiso   1.00
C575   C     0.31972   0.06393   0.47170   0.00000  Uiso   1.00
H576   H     0.51704   0.18535   0.39678   0.00000  Uiso   1.00
H577   H     0.64162   0.16095   0.43173   0.00000  Uiso   1.00
H578   H     0.48682   0.31152   0.36621   0.00000  Uiso   1.00
H579   H     0.43132   0.07971   0.38057   0.00000  Uiso   1.00
H580   H     0.76608   0.14007   0.48909   0.00000  Uiso   1.00
H581   H     0.43967   0.45755   0.35093   0.00000  Uiso   1.00
H582   H     0.32262   0.96874   0.38121   0.00000  Uiso   1.00
H583   H     0.41176   0.23270   0.54014   0.00000  Uiso   1.00
H584   H     0.53056   0.21089   0.58297   0.00000  Uiso   1.00
H585   H     0.37577   0.36147   0.51745   0.00000  Uiso   1.00
H586   H     0.32027   0.12966   0.53180   0.00000  Uiso   1.00
H587   H     0.67594   0.18061   0.61184   0.00000  Uiso   1.00
H588   H     0.34953   0.49809   0.47368   0.00000  Uiso   1.00
H589   H     0.23249   0.00928   0.50395   0.00000  Uiso   1.00
O590   O     0.80107   0.14517   0.57605   0.00000  Uiso   1.00
O591   O     0.37282   0.56169   0.39479   0.00000  Uiso   1.00
O592   O     0.21926   0.92037   0.43451   0.00000  Uiso   1.00
N593   N     0.72856   0.15259   0.51210   0.00000  Uiso   1.00
N594   N     0.42339   0.44942   0.38294   0.00000  Uiso   1.00
N595   N     0.31395   0.99243   0.41123   0.00000  Uiso   1.00
N596   N     0.68006   0.17440   0.57815   0.00000  Uiso   1.00
N597   N     0.37489   0.47123   0.44899   0.00000  Uiso   1.00
N598   N     0.26545   0.01424   0.47728   0.00000  Uiso   1.00
C599   C     0.99292   0.69619   0.92962   0.00000  Uiso   1.00
C600   C     0.04601   0.68950   0.96850   0.00000  Uiso   1.00
C601   C     0.11766   0.67172   0.96439   0.00000  Uiso   1.00
C602   C     0.15729   0.66837   0.00401   0.00000  Uiso   1.00
C603   C     0.24444   0.65589   0.05795   0.00000  Uiso   1.00
C604   C     0.96191   0.77131   0.93290   0.00000  Uiso   1.00
C605   C     0.96285   0.82232   0.89886   0.00000  Uiso   1.00
C606   C     0.93168   0.88785   0.90852   0.00000  Uiso   1.00
C607   C     0.88822   0.00236   0.90718   0.00000  Uiso   1.00
C608   C     0.93176   0.64536   0.94070   0.00000  Uiso   1.00
C609   C     0.90733   0.59048   0.91321   0.00000  Uiso   1.00
C610   C     0.85076   0.54997   0.92944   0.00000  Uiso   1.00
C611   C     0.76049   0.46892   0.94021   0.00000  Uiso   1.00
C612   C     0.93588   0.72185   0.00730   0.00000  Uiso   1.00
C613   C     0.01502   0.70343   0.01068   0.00000  Uiso   1.00
C614   C     0.05455   0.70011   0.05032   0.00000  Uiso   1.00
C615   C     0.12625   0.68233   0.04628   0.00000  Uiso   1.00
C616   C     0.93093   0.78525   0.97509   0.00000  Uiso   1.00
C617   C     0.89974   0.85071   0.98479   0.00000  Uiso   1.00
C618   C     0.90064   0.90181   0.95078   0.00000  Uiso   1.00
C619   C     0.90078   0.65929   0.98289   0.00000  Uiso   1.00
C620   C     0.84423   0.61886   0.99915   0.00000  Uiso   1.00
C621   C     0.81972   0.56393   0.97170   0.00000  Uiso   1.00
H622   H     0.01704   0.68535   0.89678   0.00000  Uiso   1.00
H623   H     0.14162   0.66095   0.93173   0.00000  Uiso   1.00
H624   H     0.98682   0.81152   0.86621   0.00000  Uiso   1.00
H625   H     0.93132   0.57971   0.88057   0.00000  Uiso   1.00
H626   H     0.26608   0.64007   0.98909   0.00000  Uiso   1.00
H627   H     0.93967   0.95755   0.85093   0.00000  Uiso   1.00
H628   H     0.82262   0.46874   0.88121   0.00000  Uiso   1.00
H629   H     0.91176   0.73270   0.04014   0.00000  Uiso   1.00
H630   H     0.03056   0.71089   0.08297   0.00000  Uiso   1.00
H631   H     0.87577   0.86147   0.01745   0.00000  Uiso   1.00
H632   H     0.82027   0.62966   0.03180   0.00000  Uiso   1.00
H633   H     0.17594   0.68061   0.11184   0.00000  Uiso   1.00
H634   H     0.84953   0.99809   0.97368   0.00000  Uiso   1.00
H635   H     0.73249   0.50928   0.00395   0.00000  Uiso   1.00
O636   O     0.30107   0.64517   0.07605   0.00000  Uiso   1.00
O637   O     0.87282   0.06169   0.89479   0.00000  Uiso   1.00
O638   O     0.71926   0.42037   0.93451   0.00000  Uiso   1.00
N639   N     0.22856   0.65259   0.01210   0.00000  Uiso   1.00
N640   N     0.92339   0.94942   0.88294   0.00000  Uiso   1.00
N641   N     0.81395   0.49243   0.91123   0.00000  Uiso   1.00
N642   N     0.18006   0.67440   0.07815   0.00000  Uiso   1.00
N643   N     0.87489   0.97123   0.94899   0.00000  Uiso   1.00
N644   N     0.76545   0.51424   0.97728   0.00000  Uiso   1.00
C645   C     0.00708   0.30381   0.92962   0.00000  Uiso   1.00
C646   C     0.95399   0.31050   0.96850   0.00000  Uiso   1.00
C647   C     0.88234   0.32828   0.96439   0.00000  Uiso   1.00
C648   C     0.84271   0.33163   0.00401   0.00000  Uiso   1.00
C649   C     0.75556   0.34411   0.05795   0.00000  Uiso   1.00
C650   C     0.03809   0.22869   0.93290   0.00000  Uiso   1.00
C651   C     0.03715   0.17768   0.89886   0.00000  Uiso   1.00
C652   C     0.06832   0.11215   0.90852   0.00000  Uiso   1.00
C653   C     0.11178   0.99764   0.90718   0.00000  Uiso   1.00
C654   C     0.06824   0.35464   0.94070   0.00000  Uiso   1.00
C655   C     0.09267   0.40952   0.91321   0.00000  Uiso   1.00
C656   C     0.14924   0.45003   0.92944   0.00000  Uiso   1.00
C657   C     0.23951   0.53108   0.94021   0.00000  Uiso   1.00
C658   C     0.06412   0.27815   0.00730   0.00000  Uiso   1.00
C659   C     0.98498   0.29657   0.01068   0.00000  Uiso   1.00
C660   C     0.94545   0.29989   0.05032   0.00000  Uiso   1.00
C661   C     0.87375   0.31767   0.04628   0.00000  Uiso   1.00
C662   C     0.06907   0.21475   0.97509   0.00000  Uiso   1.00
C663   C     0.10026   0.14929   0.98479   0.00000  Uiso   1.00
C664   C     0.09936   0.09819   0.95078   0.00000  Uiso   1.00
C665   C     0.09922   0.34071   0.98289   0.00000  Uiso   1.00
C666   C     0.15577   0.38114   0.99915   0.00000  Uiso   1.00
C667   C     0.18028   0.43607   0.97170   0.00000  Uiso   1.00
H668   H     0.98296   0.31465   0.89678   0.00000  Uiso   1.00
H669   H     0.85838   0.33905   0.93173   0.00000  Uiso   1.00
H670   H     0.01318   0.18848   0.86621   0.00000  Uiso   1.00
H671   H     0.06868   0.42029   0.88057   0.00000  Uiso   1.00
H672   H     0.73392   0.35993   0.98909   0.00000  Uiso   1.00
H673   H     0.06033   0.04245   0.85093   0.00000  Uiso   1.00
H674   H     0.17738   0.53126   0.88121   0.00000  Uiso   1.00
H675   H     0.08824   0.26730   0.04014   0.00000  Uiso   1.00
H676   H     0.96944   0.28911   0.08297   0.00000  Uiso   1.00
H677   H     0.12423   0.13853   0.01745   0.00000  Uiso   1.00
H678   H     0.17973   0.37034   0.03180   0.00000  Uiso   1.00
H679   H     0.82406   0.31939   0.11184   0.00000  Uiso   1.00
H680   H     0.15047   0.00191   0.97368   0.00000  Uiso   1.00
H681   H     0.26751   0.49072   0.00395   0.00000  Uiso   1.00
O682   O     0.69893   0.35483   0.07605   0.00000  Uiso   1.00
O683   O     0.12718   0.93831   0.89479   0.00000  Uiso   1.00
O684   O     0.28074   0.57963   0.93451   0.00000  Uiso   1.00
N685   N     0.77144   0.34741   0.01210   0.00000  Uiso   1.00
N686   N     0.07661   0.05058   0.88294   0.00000  Uiso   1.00
N687   N     0.18605   0.50757   0.91123   0.00000  Uiso   1.00
N688   N     0.81994   0.32560   0.07815   0.00000  Uiso   1.00
N689   N     0.12511   0.02877   0.94899   0.00000  Uiso   1.00
N690   N     0.23455   0.48576   0.97728   0.00000  Uiso   1.00
C691   C     0.50708   0.80381   0.42962   0.00000  Uiso   1.00
C692   C     0.45399   0.81050   0.46850   0.00000  Uiso   1.00
C693   C     0.38234   0.82828   0.46439   0.00000  Uiso   1.00
C694   C     0.34271   0.83163   0.50401   0.00000  Uiso   1.00
C695   C     0.25556   0.84411   0.55795   0.00000  Uiso   1.00
C696   C     0.53809   0.72869   0.43290   0.00000  Uiso   1.00
C697   C     0.53715   0.67768   0.39886   0.00000  Uiso   1.00
C698   C     0.56832   0.61215   0.40852   0.00000  Uiso   1.00
C699   C     0.61178   0.49764   0.40718   0.00000  Uiso   1.00
C700   C     0.56824   0.85464   0.44070   0.00000  Uiso   1.00
C701   C     0.59267   0.90952   0.41321   0.00000  Uiso   1.00
C702   C     0.64924   0.95003   0.42944   0.00000  Uiso   1.00
C703   C     0.73951   0.03108   0.44021   0.00000  Uiso   1.00
C704   C     0.56412   0.77815   0.50730   0.00000  Uiso   1.00
C705   C     0.48498   0.79657   0.51068   0.00000  Uiso   1.00
C706   C     0.44545   0.79989   0.55032   0.00000  Uiso   1.00
C707   C     0.37375   0.81767   0.54628   0.00000  Uiso   1.00
C708   C     0.56907   0.71475   0.47509   0.00000  Uiso   1.00
C709   C     0.60026   0.64929   0.48479   0.00000  Uiso   1.00
C710   C     0.59936   0.59819   0.45078   0.00000  Uiso   1.00
C711   C     0.59922   0.84071   0.48289   0.00000  Uiso   1.00
C712   C     0.65577   0.88114   0.49915   0.00000  Uiso   1.00
C713   C     0.68028   0.93607   0.47170   0.00000  Uiso   1.00
H714   H     0.48296   0.81465   0.39678   0.00000  Uiso   1.00
H715   H     0.35838   0.83905   0.43173   0.00000  Uiso   1.00
H716   H     0.51318   0.68848   0.36621   0.00000  Uiso   1.00
H717   H     0.56868   0.92029   0.38057   0.00000  Uiso   1.00
H718   H     0.23392   0.85993   0.48909   0.00000  Uiso   1.00
H719   H     0.56033   0.54245   0.35093   0.00000  Uiso   1.00
H720   H     0.67738   0.03126   0.38121   0.00000  Uiso   1.00
H721   H     0.58824   0.76730   0.54014   0.00000  Uiso   1.00
H722   H     0.46944   0.78911   0.58297   0.00000  Uiso   1.00
H723   H     0.62423   0.63853   0.51745   0.00000  Uiso   1.00
H724   H     0.67973   0.87034   0.53180   0.00000  Uiso   1.00
H725   H     0.32406   0.81939   0.61184   0.00000  Uiso   1.00
H726   H     0.65047   0.50191   0.47368   0.00000  Uiso   1.00
H727   H     0.76751   0.99072   0.50395   0.00000  Uiso   1.00
O728   O     0.19893   0.85483   0.57605   0.00000  Uiso   1.00
O729   O     0.62718   0.43831   0.39479   0.00000  Uiso   1.00
O730   O     0.78074   0.07963   0.43451   0.00000  Uiso   1.00
N731   N     0.27144   0.84741   0.51210   0.00000  Uiso   1.00
N732   N     0.57661   0.55058   0.38294   0.00000  Uiso   1.00
N733   N     0.68605   0.00757   0.41123   0.00000  Uiso   1.00
N734   N     0.31994   0.82560   0.57815   0.00000  Uiso   1.00
N735   N     0.62511   0.52877   0.44899   0.00000  Uiso   1.00
N736   N     0.73455   0.98576   0.47728   0.00000  Uiso   1.00
