data_job_04780
_audit_creation_date              2018-12-19
_audit_creation_method            'Materials Studio'
_symmetry_space_group_name_H-M    'P1'
_symmetry_Int_Tables_number       1
_symmetry_cell_setting            triclinic
loop_
_symmetry_equiv_pos_as_xyz
  x,y,z
_cell_length_a                    26.9410
_cell_length_b                    12.5367
_cell_length_c                    28.9677
_cell_angle_alpha                 90.0000
_cell_angle_beta                  86.8253
_cell_angle_gamma                 90.0000
loop_
_atom_site_label
_atom_site_type_symbol
_atom_site_fract_x
_atom_site_fract_y
_atom_site_fract_z
_atom_site_U_iso_or_equiv
_atom_site_adp_type
_atom_site_occupancy
C1     C     0.30392   0.88857   0.85892   0.00000  Uiso   1.00
C2     C     0.31531   0.86833   0.90916   0.00000  Uiso   1.00
C3     C     0.28195   0.87921   0.94712   0.00000  Uiso   1.00
C4     C     0.29959   0.85697   0.99021   0.00000  Uiso   1.00
C5     C     0.30979   0.83047   0.06747   0.00000  Uiso   1.00
C6     C     0.34159   0.97143   0.84082   0.00000  Uiso   1.00
C7     C     0.33033   0.06899   0.82132   0.00000  Uiso   1.00
C8     C     0.37010   0.13353   0.80688   0.00000  Uiso   1.00
C9     C     0.42110   0.26706   0.77801   0.00000  Uiso   1.00
C10    C     0.31698   0.78561   0.83298   0.00000  Uiso   1.00
C11    C     0.28503   0.72693   0.80688   0.00000  Uiso   1.00
C12    C     0.30408   0.63503   0.78583   0.00000  Uiso   1.00
C13    C     0.31687   0.48004   0.74479   0.00000  Uiso   1.00
C14    C     0.39457   0.82971   0.86796   0.00000  Uiso   1.00
C15    C     0.36455   0.83637   0.91406   0.00000  Uiso   1.00
C16    C     0.38224   0.81410   0.95711   0.00000  Uiso   1.00
C17    C     0.34891   0.82494   0.99513   0.00000  Uiso   1.00
C18    C     0.39083   0.93947   0.84573   0.00000  Uiso   1.00
C19    C     0.43062   0.00387   0.83131   0.00000  Uiso   1.00
C20    C     0.41942   0.10151   0.81179   0.00000  Uiso   1.00
C21    C     0.36622   0.75364   0.83789   0.00000  Uiso   1.00
C22    C     0.38532   0.66182   0.81687   0.00000  Uiso   1.00
C23    C     0.35340   0.60301   0.79074   0.00000  Uiso   1.00
H24    H     0.26559   0.91346   0.85510   0.00000  Uiso   1.00
H25    H     0.24385   0.90397   0.94331   0.00000  Uiso   1.00
H26    H     0.29223   0.09370   0.81752   0.00000  Uiso   1.00
H27    H     0.24693   0.75170   0.80309   0.00000  Uiso   1.00
H28    H     0.24147   0.87938   0.04326   0.00000  Uiso   1.00
H29    H     0.34347   0.27944   0.77803   0.00000  Uiso   1.00
H30    H     0.24795   0.55825   0.74758   0.00000  Uiso   1.00
H31    H     0.43290   0.80482   0.87178   0.00000  Uiso   1.00
H32    H     0.42034   0.78936   0.96090   0.00000  Uiso   1.00
H33    H     0.46872   0.97911   0.83511   0.00000  Uiso   1.00
H34    H     0.42342   0.63710   0.82068   0.00000  Uiso   1.00
H35    H     0.38472   0.78637   0.05754   0.00000  Uiso   1.00
H36    H     0.48672   0.18643   0.79230   0.00000  Uiso   1.00
H37    H     0.39120   0.46524   0.76186   0.00000  Uiso   1.00
O38    O     0.30182   0.82470   0.10872   0.00000  Uiso   1.00
O39    O     0.43564   0.34955   0.76074   0.00000  Uiso   1.00
O40    O     0.31032   0.40337   0.72080   0.00000  Uiso   1.00
N41    N     0.27690   0.85959   0.03439   0.00000  Uiso   1.00
N42    N     0.37227   0.23363   0.78642   0.00000  Uiso   1.00
N43    N     0.28297   0.55940   0.75795   0.00000  Uiso   1.00
N44    N     0.35398   0.80954   0.04207   0.00000  Uiso   1.00
N45    N     0.44935   0.18358   0.79410   0.00000  Uiso   1.00
N46    N     0.36005   0.50935   0.76563   0.00000  Uiso   1.00
C47    C     0.31877   0.59198   0.58451   0.00000  Uiso   1.00
C48    C     0.32728   0.60635   0.53240   0.00000  Uiso   1.00
C49    C     0.29199   0.59104   0.49990   0.00000  Uiso   1.00
C50    C     0.30711   0.60825   0.45391   0.00000  Uiso   1.00
C51    C     0.31292   0.62574   0.37496   0.00000  Uiso   1.00
C52    C     0.35751   0.51135   0.59863   0.00000  Uiso   1.00
C53    C     0.34764   0.41618   0.62182   0.00000  Uiso   1.00
C54    C     0.38821   0.35344   0.63158   0.00000  Uiso   1.00
C55    C     0.44096   0.22348   0.65549   0.00000  Uiso   1.00
C56    C     0.33293   0.69783   0.60612   0.00000  Uiso   1.00
C57    C     0.30240   0.75944   0.63563   0.00000  Uiso   1.00
C58    C     0.32229   0.85369   0.65172   0.00000  Uiso   1.00
C59    C     0.33688   0.01327   0.68727   0.00000  Uiso   1.00
C60    C     0.40838   0.64979   0.56061   0.00000  Uiso   1.00
C61    C     0.37595   0.63775   0.51942   0.00000  Uiso   1.00
C62    C     0.39113   0.65500   0.47346   0.00000  Uiso   1.00
C63    C     0.35587   0.63971   0.44090   0.00000  Uiso   1.00
C64    C     0.40618   0.54275   0.58564   0.00000  Uiso   1.00
C65    C     0.44678   0.48014   0.59538   0.00000  Uiso   1.00
C66    C     0.43697   0.38489   0.61858   0.00000  Uiso   1.00
C67    C     0.38160   0.72924   0.59314   0.00000  Uiso   1.00
C68    C     0.40154   0.82340   0.60919   0.00000  Uiso   1.00
C69    C     0.37105   0.88515   0.63871   0.00000  Uiso   1.00
H70    H     0.28088   0.56753   0.59462   0.00000  Uiso   1.00
H71    H     0.25433   0.56673   0.50996   0.00000  Uiso   1.00
H72    H     0.30997   0.39191   0.63187   0.00000  Uiso   1.00
H73    H     0.26474   0.73512   0.64567   0.00000  Uiso   1.00
H74    H     0.24636   0.57965   0.41038   0.00000  Uiso   1.00
H75    H     0.36368   0.21105   0.66744   0.00000  Uiso   1.00
H76    H     0.26831   0.93477   0.69655   0.00000  Uiso   1.00
H77    H     0.44627   0.67423   0.55050   0.00000  Uiso   1.00
H78    H     0.42880   0.67929   0.46342   0.00000  Uiso   1.00
H79    H     0.48444   0.50447   0.58533   0.00000  Uiso   1.00
H80    H     0.43921   0.84768   0.59913   0.00000  Uiso   1.00
H81    H     0.38797   0.67101   0.37261   0.00000  Uiso   1.00
H82    H     0.50529   0.30240   0.62967   0.00000  Uiso   1.00
H83    H     0.40991   0.02613   0.65878   0.00000  Uiso   1.00
O84    O     0.30269   0.62670   0.33501   0.00000  Uiso   1.00
O85    O     0.45661   0.14311   0.67226   0.00000  Uiso   1.00
O86    O     0.33148   0.09263   0.71046   0.00000  Uiso   1.00
N87    N     0.28208   0.60048   0.41344   0.00000  Uiso   1.00
N88    N     0.39177   0.25585   0.65377   0.00000  Uiso   1.00
N89    N     0.30261   0.93246   0.68100   0.00000  Uiso   1.00
N90    N     0.35828   0.64964   0.39312   0.00000  Uiso   1.00
N91    N     0.46797   0.30501   0.63344   0.00000  Uiso   1.00
N92    N     0.37880   0.98162   0.66067   0.00000  Uiso   1.00
C93    C     0.80392   0.38857   0.85892   0.00000  Uiso   1.00
C94    C     0.81531   0.36833   0.90916   0.00000  Uiso   1.00
C95    C     0.78195   0.37921   0.94712   0.00000  Uiso   1.00
C96    C     0.79959   0.35697   0.99021   0.00000  Uiso   1.00
C97    C     0.80979   0.33047   0.06747   0.00000  Uiso   1.00
C98    C     0.84159   0.47143   0.84082   0.00000  Uiso   1.00
C99    C     0.83033   0.56899   0.82132   0.00000  Uiso   1.00
C100   C     0.87010   0.63353   0.80688   0.00000  Uiso   1.00
C101   C     0.92110   0.76706   0.77801   0.00000  Uiso   1.00
C102   C     0.81698   0.28561   0.83298   0.00000  Uiso   1.00
C103   C     0.78503   0.22693   0.80688   0.00000  Uiso   1.00
C104   C     0.80408   0.13503   0.78583   0.00000  Uiso   1.00
C105   C     0.81687   0.98004   0.74479   0.00000  Uiso   1.00
C106   C     0.89457   0.32971   0.86796   0.00000  Uiso   1.00
C107   C     0.86455   0.33637   0.91406   0.00000  Uiso   1.00
C108   C     0.88224   0.31410   0.95711   0.00000  Uiso   1.00
C109   C     0.84891   0.32494   0.99513   0.00000  Uiso   1.00
C110   C     0.89083   0.43947   0.84573   0.00000  Uiso   1.00
C111   C     0.93062   0.50387   0.83131   0.00000  Uiso   1.00
C112   C     0.91942   0.60151   0.81179   0.00000  Uiso   1.00
C113   C     0.86622   0.25364   0.83789   0.00000  Uiso   1.00
C114   C     0.88532   0.16182   0.81687   0.00000  Uiso   1.00
C115   C     0.85340   0.10301   0.79074   0.00000  Uiso   1.00
H116   H     0.76559   0.41346   0.85510   0.00000  Uiso   1.00
H117   H     0.74385   0.40397   0.94331   0.00000  Uiso   1.00
H118   H     0.79223   0.59370   0.81752   0.00000  Uiso   1.00
H119   H     0.74693   0.25170   0.80309   0.00000  Uiso   1.00
H120   H     0.74147   0.37938   0.04326   0.00000  Uiso   1.00
H121   H     0.84347   0.77944   0.77803   0.00000  Uiso   1.00
H122   H     0.74795   0.05825   0.74758   0.00000  Uiso   1.00
H123   H     0.93290   0.30482   0.87178   0.00000  Uiso   1.00
H124   H     0.92034   0.28936   0.96090   0.00000  Uiso   1.00
H125   H     0.96872   0.47911   0.83511   0.00000  Uiso   1.00
H126   H     0.92342   0.13710   0.82068   0.00000  Uiso   1.00
H127   H     0.88472   0.28637   0.05754   0.00000  Uiso   1.00
H128   H     0.98672   0.68643   0.79230   0.00000  Uiso   1.00
H129   H     0.89120   0.96524   0.76186   0.00000  Uiso   1.00
O130   O     0.80182   0.32470   0.10872   0.00000  Uiso   1.00
O131   O     0.93564   0.84955   0.76074   0.00000  Uiso   1.00
O132   O     0.81032   0.90337   0.72080   0.00000  Uiso   1.00
N133   N     0.77690   0.35959   0.03439   0.00000  Uiso   1.00
N134   N     0.87227   0.73363   0.78642   0.00000  Uiso   1.00
N135   N     0.78297   0.05940   0.75795   0.00000  Uiso   1.00
N136   N     0.85398   0.30954   0.04207   0.00000  Uiso   1.00
N137   N     0.94935   0.68358   0.79410   0.00000  Uiso   1.00
N138   N     0.86005   0.00935   0.76563   0.00000  Uiso   1.00
C139   C     0.81877   0.09198   0.58451   0.00000  Uiso   1.00
C140   C     0.82728   0.10635   0.53240   0.00000  Uiso   1.00
C141   C     0.79199   0.09104   0.49990   0.00000  Uiso   1.00
C142   C     0.80711   0.10825   0.45391   0.00000  Uiso   1.00
C143   C     0.81292   0.12574   0.37496   0.00000  Uiso   1.00
C144   C     0.85751   0.01135   0.59863   0.00000  Uiso   1.00
C145   C     0.84764   0.91618   0.62182   0.00000  Uiso   1.00
C146   C     0.88821   0.85344   0.63158   0.00000  Uiso   1.00
C147   C     0.94096   0.72348   0.65549   0.00000  Uiso   1.00
C148   C     0.83293   0.19783   0.60612   0.00000  Uiso   1.00
C149   C     0.80240   0.25944   0.63563   0.00000  Uiso   1.00
C150   C     0.82229   0.35369   0.65172   0.00000  Uiso   1.00
C151   C     0.83688   0.51327   0.68727   0.00000  Uiso   1.00
C152   C     0.90838   0.14979   0.56061   0.00000  Uiso   1.00
C153   C     0.87595   0.13775   0.51942   0.00000  Uiso   1.00
C154   C     0.89113   0.15500   0.47346   0.00000  Uiso   1.00
C155   C     0.85587   0.13971   0.44090   0.00000  Uiso   1.00
C156   C     0.90618   0.04275   0.58564   0.00000  Uiso   1.00
C157   C     0.94678   0.98014   0.59538   0.00000  Uiso   1.00
C158   C     0.93697   0.88489   0.61858   0.00000  Uiso   1.00
C159   C     0.88160   0.22924   0.59314   0.00000  Uiso   1.00
C160   C     0.90154   0.32340   0.60919   0.00000  Uiso   1.00
C161   C     0.87105   0.38515   0.63871   0.00000  Uiso   1.00
H162   H     0.78088   0.06753   0.59462   0.00000  Uiso   1.00
H163   H     0.75433   0.06673   0.50996   0.00000  Uiso   1.00
H164   H     0.80997   0.89191   0.63187   0.00000  Uiso   1.00
H165   H     0.76474   0.23512   0.64567   0.00000  Uiso   1.00
H166   H     0.74636   0.07965   0.41038   0.00000  Uiso   1.00
H167   H     0.86368   0.71105   0.66744   0.00000  Uiso   1.00
H168   H     0.76831   0.43477   0.69655   0.00000  Uiso   1.00
H169   H     0.94627   0.17423   0.55050   0.00000  Uiso   1.00
H170   H     0.92880   0.17929   0.46342   0.00000  Uiso   1.00
H171   H     0.98444   0.00447   0.58533   0.00000  Uiso   1.00
H172   H     0.93921   0.34768   0.59913   0.00000  Uiso   1.00
H173   H     0.88797   0.17101   0.37261   0.00000  Uiso   1.00
H174   H     0.00529   0.80240   0.62967   0.00000  Uiso   1.00
H175   H     0.90991   0.52613   0.65878   0.00000  Uiso   1.00
O176   O     0.80269   0.12670   0.33501   0.00000  Uiso   1.00
O177   O     0.95661   0.64311   0.67226   0.00000  Uiso   1.00
O178   O     0.83148   0.59263   0.71046   0.00000  Uiso   1.00
N179   N     0.78208   0.10048   0.41344   0.00000  Uiso   1.00
N180   N     0.89177   0.75585   0.65377   0.00000  Uiso   1.00
N181   N     0.80261   0.43246   0.68100   0.00000  Uiso   1.00
N182   N     0.85828   0.14964   0.39312   0.00000  Uiso   1.00
N183   N     0.96797   0.80501   0.63344   0.00000  Uiso   1.00
N184   N     0.87880   0.48162   0.66067   0.00000  Uiso   1.00
C185   C     0.69608   0.88857   0.64108   0.00000  Uiso   1.00
C186   C     0.68469   0.86833   0.59084   0.00000  Uiso   1.00
C187   C     0.71805   0.87921   0.55288   0.00000  Uiso   1.00
C188   C     0.70041   0.85697   0.50979   0.00000  Uiso   1.00
C189   C     0.69021   0.83047   0.43253   0.00000  Uiso   1.00
C190   C     0.65841   0.97143   0.65918   0.00000  Uiso   1.00
C191   C     0.66967   0.06899   0.67868   0.00000  Uiso   1.00
C192   C     0.62990   0.13353   0.69312   0.00000  Uiso   1.00
C193   C     0.57890   0.26706   0.72199   0.00000  Uiso   1.00
C194   C     0.68302   0.78561   0.66702   0.00000  Uiso   1.00
C195   C     0.71497   0.72693   0.69312   0.00000  Uiso   1.00
C196   C     0.69592   0.63503   0.71417   0.00000  Uiso   1.00
C197   C     0.68313   0.48004   0.75521   0.00000  Uiso   1.00
C198   C     0.60543   0.82971   0.63204   0.00000  Uiso   1.00
C199   C     0.63545   0.83637   0.58594   0.00000  Uiso   1.00
C200   C     0.61776   0.81410   0.54289   0.00000  Uiso   1.00
C201   C     0.65109   0.82494   0.50487   0.00000  Uiso   1.00
C202   C     0.60917   0.93947   0.65427   0.00000  Uiso   1.00
C203   C     0.56938   0.00387   0.66869   0.00000  Uiso   1.00
C204   C     0.58058   0.10151   0.68821   0.00000  Uiso   1.00
C205   C     0.63378   0.75364   0.66211   0.00000  Uiso   1.00
C206   C     0.61468   0.66182   0.68313   0.00000  Uiso   1.00
C207   C     0.64660   0.60301   0.70926   0.00000  Uiso   1.00
H208   H     0.73441   0.91346   0.64490   0.00000  Uiso   1.00
H209   H     0.75615   0.90397   0.55669   0.00000  Uiso   1.00
H210   H     0.70777   0.09370   0.68248   0.00000  Uiso   1.00
H211   H     0.75307   0.75170   0.69691   0.00000  Uiso   1.00
H212   H     0.75853   0.87938   0.45674   0.00000  Uiso   1.00
H213   H     0.65653   0.27944   0.72197   0.00000  Uiso   1.00
H214   H     0.75205   0.55825   0.75242   0.00000  Uiso   1.00
H215   H     0.56710   0.80482   0.62822   0.00000  Uiso   1.00
H216   H     0.57966   0.78936   0.53910   0.00000  Uiso   1.00
H217   H     0.53128   0.97911   0.66489   0.00000  Uiso   1.00
H218   H     0.57658   0.63710   0.67932   0.00000  Uiso   1.00
H219   H     0.61528   0.78637   0.44246   0.00000  Uiso   1.00
H220   H     0.51328   0.18643   0.70770   0.00000  Uiso   1.00
H221   H     0.60880   0.46524   0.73814   0.00000  Uiso   1.00
O222   O     0.69818   0.82470   0.39128   0.00000  Uiso   1.00
O223   O     0.56436   0.34955   0.73926   0.00000  Uiso   1.00
O224   O     0.68968   0.40337   0.77920   0.00000  Uiso   1.00
N225   N     0.72310   0.85959   0.46561   0.00000  Uiso   1.00
N226   N     0.62773   0.23363   0.71358   0.00000  Uiso   1.00
N227   N     0.71703   0.55940   0.74205   0.00000  Uiso   1.00
N228   N     0.64602   0.80954   0.45793   0.00000  Uiso   1.00
N229   N     0.55065   0.18358   0.70590   0.00000  Uiso   1.00
N230   N     0.63995   0.50935   0.73437   0.00000  Uiso   1.00
C231   C     0.68123   0.59198   0.91549   0.00000  Uiso   1.00
C232   C     0.67272   0.60635   0.96760   0.00000  Uiso   1.00
C233   C     0.70801   0.59104   0.00010   0.00000  Uiso   1.00
C234   C     0.69289   0.60825   0.04609   0.00000  Uiso   1.00
C235   C     0.68708   0.62574   0.12504   0.00000  Uiso   1.00
C236   C     0.64249   0.51135   0.90137   0.00000  Uiso   1.00
C237   C     0.65236   0.41618   0.87818   0.00000  Uiso   1.00
C238   C     0.61179   0.35344   0.86842   0.00000  Uiso   1.00
C239   C     0.55904   0.22348   0.84451   0.00000  Uiso   1.00
C240   C     0.66707   0.69783   0.89388   0.00000  Uiso   1.00
C241   C     0.69760   0.75944   0.86437   0.00000  Uiso   1.00
C242   C     0.67771   0.85369   0.84828   0.00000  Uiso   1.00
C243   C     0.66312   0.01327   0.81273   0.00000  Uiso   1.00
C244   C     0.59162   0.64979   0.93939   0.00000  Uiso   1.00
C245   C     0.62405   0.63775   0.98058   0.00000  Uiso   1.00
C246   C     0.60887   0.65500   0.02654   0.00000  Uiso   1.00
C247   C     0.64413   0.63971   0.05910   0.00000  Uiso   1.00
C248   C     0.59382   0.54275   0.91436   0.00000  Uiso   1.00
C249   C     0.55322   0.48014   0.90462   0.00000  Uiso   1.00
C250   C     0.56303   0.38489   0.88142   0.00000  Uiso   1.00
C251   C     0.61840   0.72924   0.90686   0.00000  Uiso   1.00
C252   C     0.59846   0.82340   0.89081   0.00000  Uiso   1.00
C253   C     0.62895   0.88515   0.86129   0.00000  Uiso   1.00
H254   H     0.71912   0.56753   0.90538   0.00000  Uiso   1.00
H255   H     0.74567   0.56673   0.99004   0.00000  Uiso   1.00
H256   H     0.69003   0.39191   0.86813   0.00000  Uiso   1.00
H257   H     0.73526   0.73512   0.85433   0.00000  Uiso   1.00
H258   H     0.75364   0.57965   0.08962   0.00000  Uiso   1.00
H259   H     0.63632   0.21105   0.83256   0.00000  Uiso   1.00
H260   H     0.73169   0.93477   0.80345   0.00000  Uiso   1.00
H261   H     0.55373   0.67423   0.94950   0.00000  Uiso   1.00
H262   H     0.57120   0.67929   0.03658   0.00000  Uiso   1.00
H263   H     0.51556   0.50447   0.91467   0.00000  Uiso   1.00
H264   H     0.56079   0.84768   0.90087   0.00000  Uiso   1.00
H265   H     0.61203   0.67101   0.12739   0.00000  Uiso   1.00
H266   H     0.49471   0.30240   0.87033   0.00000  Uiso   1.00
H267   H     0.59009   0.02613   0.84122   0.00000  Uiso   1.00
O268   O     0.69731   0.62670   0.16499   0.00000  Uiso   1.00
O269   O     0.54339   0.14311   0.82774   0.00000  Uiso   1.00
O270   O     0.66852   0.09263   0.78954   0.00000  Uiso   1.00
N271   N     0.71792   0.60048   0.08656   0.00000  Uiso   1.00
N272   N     0.60823   0.25585   0.84623   0.00000  Uiso   1.00
N273   N     0.69739   0.93246   0.81900   0.00000  Uiso   1.00
N274   N     0.64172   0.64964   0.10688   0.00000  Uiso   1.00
N275   N     0.53203   0.30501   0.86656   0.00000  Uiso   1.00
N276   N     0.62120   0.98162   0.83933   0.00000  Uiso   1.00
C277   C     0.19608   0.38857   0.64108   0.00000  Uiso   1.00
C278   C     0.18469   0.36833   0.59084   0.00000  Uiso   1.00
C279   C     0.21805   0.37921   0.55288   0.00000  Uiso   1.00
C280   C     0.20041   0.35697   0.50979   0.00000  Uiso   1.00
C281   C     0.19021   0.33047   0.43253   0.00000  Uiso   1.00
C282   C     0.15841   0.47143   0.65918   0.00000  Uiso   1.00
C283   C     0.16967   0.56899   0.67868   0.00000  Uiso   1.00
C284   C     0.12990   0.63353   0.69312   0.00000  Uiso   1.00
C285   C     0.07890   0.76706   0.72199   0.00000  Uiso   1.00
C286   C     0.18302   0.28561   0.66702   0.00000  Uiso   1.00
C287   C     0.21497   0.22693   0.69312   0.00000  Uiso   1.00
C288   C     0.19592   0.13503   0.71417   0.00000  Uiso   1.00
C289   C     0.18313   0.98004   0.75521   0.00000  Uiso   1.00
C290   C     0.10543   0.32971   0.63204   0.00000  Uiso   1.00
C291   C     0.13545   0.33637   0.58594   0.00000  Uiso   1.00
C292   C     0.11776   0.31410   0.54289   0.00000  Uiso   1.00
C293   C     0.15109   0.32494   0.50487   0.00000  Uiso   1.00
C294   C     0.10917   0.43947   0.65427   0.00000  Uiso   1.00
C295   C     0.06938   0.50387   0.66869   0.00000  Uiso   1.00
C296   C     0.08058   0.60151   0.68821   0.00000  Uiso   1.00
C297   C     0.13378   0.25364   0.66211   0.00000  Uiso   1.00
C298   C     0.11468   0.16182   0.68313   0.00000  Uiso   1.00
C299   C     0.14660   0.10301   0.70926   0.00000  Uiso   1.00
H300   H     0.23441   0.41346   0.64490   0.00000  Uiso   1.00
H301   H     0.25615   0.40397   0.55669   0.00000  Uiso   1.00
H302   H     0.20777   0.59370   0.68248   0.00000  Uiso   1.00
H303   H     0.25307   0.25170   0.69691   0.00000  Uiso   1.00
H304   H     0.25853   0.37938   0.45674   0.00000  Uiso   1.00
H305   H     0.15653   0.77944   0.72197   0.00000  Uiso   1.00
H306   H     0.25205   0.05825   0.75242   0.00000  Uiso   1.00
H307   H     0.06710   0.30482   0.62822   0.00000  Uiso   1.00
H308   H     0.07966   0.28936   0.53910   0.00000  Uiso   1.00
H309   H     0.03128   0.47911   0.66489   0.00000  Uiso   1.00
H310   H     0.07658   0.13710   0.67932   0.00000  Uiso   1.00
H311   H     0.11528   0.28637   0.44246   0.00000  Uiso   1.00
H312   H     0.01328   0.68643   0.70770   0.00000  Uiso   1.00
H313   H     0.10880   0.96524   0.73814   0.00000  Uiso   1.00
O314   O     0.19818   0.32470   0.39128   0.00000  Uiso   1.00
O315   O     0.06436   0.84955   0.73926   0.00000  Uiso   1.00
O316   O     0.18968   0.90337   0.77920   0.00000  Uiso   1.00
N317   N     0.22310   0.35959   0.46561   0.00000  Uiso   1.00
N318   N     0.12773   0.73363   0.71358   0.00000  Uiso   1.00
N319   N     0.21703   0.05940   0.74205   0.00000  Uiso   1.00
N320   N     0.14602   0.30954   0.45793   0.00000  Uiso   1.00
N321   N     0.05065   0.68358   0.70590   0.00000  Uiso   1.00
N322   N     0.13995   0.00935   0.73437   0.00000  Uiso   1.00
C323   C     0.18123   0.09198   0.91549   0.00000  Uiso   1.00
C324   C     0.17272   0.10635   0.96760   0.00000  Uiso   1.00
C325   C     0.20801   0.09104   0.00010   0.00000  Uiso   1.00
C326   C     0.19289   0.10825   0.04609   0.00000  Uiso   1.00
C327   C     0.18708   0.12574   0.12504   0.00000  Uiso   1.00
C328   C     0.14249   0.01135   0.90137   0.00000  Uiso   1.00
C329   C     0.15236   0.91618   0.87818   0.00000  Uiso   1.00
C330   C     0.11179   0.85344   0.86842   0.00000  Uiso   1.00
C331   C     0.05904   0.72348   0.84451   0.00000  Uiso   1.00
C332   C     0.16707   0.19783   0.89388   0.00000  Uiso   1.00
C333   C     0.19760   0.25944   0.86437   0.00000  Uiso   1.00
C334   C     0.17771   0.35369   0.84828   0.00000  Uiso   1.00
C335   C     0.16312   0.51327   0.81273   0.00000  Uiso   1.00
C336   C     0.09162   0.14979   0.93939   0.00000  Uiso   1.00
C337   C     0.12405   0.13775   0.98058   0.00000  Uiso   1.00
C338   C     0.10887   0.15500   0.02654   0.00000  Uiso   1.00
C339   C     0.14413   0.13971   0.05910   0.00000  Uiso   1.00
C340   C     0.09382   0.04275   0.91436   0.00000  Uiso   1.00
C341   C     0.05322   0.98014   0.90462   0.00000  Uiso   1.00
C342   C     0.06303   0.88489   0.88142   0.00000  Uiso   1.00
C343   C     0.11840   0.22924   0.90686   0.00000  Uiso   1.00
C344   C     0.09846   0.32340   0.89081   0.00000  Uiso   1.00
C345   C     0.12895   0.38515   0.86129   0.00000  Uiso   1.00
H346   H     0.21912   0.06753   0.90538   0.00000  Uiso   1.00
H347   H     0.24567   0.06673   0.99004   0.00000  Uiso   1.00
H348   H     0.19003   0.89191   0.86813   0.00000  Uiso   1.00
H349   H     0.23526   0.23512   0.85433   0.00000  Uiso   1.00
H350   H     0.25364   0.07965   0.08962   0.00000  Uiso   1.00
H351   H     0.13632   0.71105   0.83256   0.00000  Uiso   1.00
H352   H     0.23169   0.43477   0.80345   0.00000  Uiso   1.00
H353   H     0.05373   0.17423   0.94950   0.00000  Uiso   1.00
H354   H     0.07120   0.17929   0.03658   0.00000  Uiso   1.00
H355   H     0.01556   0.00447   0.91467   0.00000  Uiso   1.00
H356   H     0.06079   0.34768   0.90087   0.00000  Uiso   1.00
H357   H     0.11203   0.17101   0.12739   0.00000  Uiso   1.00
H358   H     0.99471   0.80240   0.87033   0.00000  Uiso   1.00
H359   H     0.09009   0.52613   0.84122   0.00000  Uiso   1.00
O360   O     0.19731   0.12670   0.16499   0.00000  Uiso   1.00
O361   O     0.04339   0.64311   0.82774   0.00000  Uiso   1.00
O362   O     0.16852   0.59263   0.78954   0.00000  Uiso   1.00
N363   N     0.21792   0.10048   0.08656   0.00000  Uiso   1.00
N364   N     0.10823   0.75585   0.84623   0.00000  Uiso   1.00
N365   N     0.19739   0.43246   0.81900   0.00000  Uiso   1.00
N366   N     0.14172   0.14964   0.10688   0.00000  Uiso   1.00
N367   N     0.03203   0.80501   0.86656   0.00000  Uiso   1.00
N368   N     0.12120   0.48162   0.83933   0.00000  Uiso   1.00
C369   C     0.69608   0.11143   0.14108   0.00000  Uiso   1.00
C370   C     0.68469   0.13167   0.09084   0.00000  Uiso   1.00
C371   C     0.71805   0.12079   0.05288   0.00000  Uiso   1.00
C372   C     0.70041   0.14303   0.00979   0.00000  Uiso   1.00
C373   C     0.69021   0.16953   0.93253   0.00000  Uiso   1.00
C374   C     0.65841   0.02857   0.15918   0.00000  Uiso   1.00
C375   C     0.66967   0.93101   0.17868   0.00000  Uiso   1.00
C376   C     0.62990   0.86647   0.19312   0.00000  Uiso   1.00
C377   C     0.57890   0.73294   0.22199   0.00000  Uiso   1.00
C378   C     0.68302   0.21439   0.16702   0.00000  Uiso   1.00
C379   C     0.71497   0.27307   0.19312   0.00000  Uiso   1.00
C380   C     0.69592   0.36497   0.21417   0.00000  Uiso   1.00
C381   C     0.68313   0.51996   0.25521   0.00000  Uiso   1.00
C382   C     0.60543   0.17029   0.13204   0.00000  Uiso   1.00
C383   C     0.63545   0.16363   0.08594   0.00000  Uiso   1.00
C384   C     0.61776   0.18590   0.04289   0.00000  Uiso   1.00
C385   C     0.65109   0.17506   0.00487   0.00000  Uiso   1.00
C386   C     0.60917   0.06053   0.15427   0.00000  Uiso   1.00
C387   C     0.56938   0.99613   0.16869   0.00000  Uiso   1.00
C388   C     0.58058   0.89849   0.18821   0.00000  Uiso   1.00
C389   C     0.63378   0.24636   0.16211   0.00000  Uiso   1.00
C390   C     0.61468   0.33818   0.18313   0.00000  Uiso   1.00
C391   C     0.64660   0.39699   0.20926   0.00000  Uiso   1.00
H392   H     0.73441   0.08654   0.14490   0.00000  Uiso   1.00
H393   H     0.75615   0.09603   0.05669   0.00000  Uiso   1.00
H394   H     0.70777   0.90630   0.18248   0.00000  Uiso   1.00
H395   H     0.75307   0.24830   0.19691   0.00000  Uiso   1.00
H396   H     0.75853   0.12062   0.95674   0.00000  Uiso   1.00
H397   H     0.65653   0.72056   0.22197   0.00000  Uiso   1.00
H398   H     0.75205   0.44175   0.25242   0.00000  Uiso   1.00
H399   H     0.56710   0.19518   0.12822   0.00000  Uiso   1.00
H400   H     0.57966   0.21064   0.03910   0.00000  Uiso   1.00
H401   H     0.53128   0.02089   0.16489   0.00000  Uiso   1.00
H402   H     0.57658   0.36290   0.17932   0.00000  Uiso   1.00
H403   H     0.61528   0.21363   0.94246   0.00000  Uiso   1.00
H404   H     0.51328   0.81357   0.20770   0.00000  Uiso   1.00
H405   H     0.60880   0.53476   0.23814   0.00000  Uiso   1.00
O406   O     0.69818   0.17530   0.89128   0.00000  Uiso   1.00
O407   O     0.56436   0.65045   0.23926   0.00000  Uiso   1.00
O408   O     0.68968   0.59663   0.27920   0.00000  Uiso   1.00
N409   N     0.72310   0.14041   0.96561   0.00000  Uiso   1.00
N410   N     0.62773   0.76637   0.21358   0.00000  Uiso   1.00
N411   N     0.71703   0.44060   0.24205   0.00000  Uiso   1.00
N412   N     0.64602   0.19046   0.95793   0.00000  Uiso   1.00
N413   N     0.55065   0.81642   0.20590   0.00000  Uiso   1.00
N414   N     0.63995   0.49065   0.23437   0.00000  Uiso   1.00
C415   C     0.68123   0.40802   0.41549   0.00000  Uiso   1.00
C416   C     0.67272   0.39365   0.46760   0.00000  Uiso   1.00
C417   C     0.70801   0.40896   0.50010   0.00000  Uiso   1.00
C418   C     0.69289   0.39175   0.54609   0.00000  Uiso   1.00
C419   C     0.68708   0.37426   0.62504   0.00000  Uiso   1.00
C420   C     0.64249   0.48865   0.40137   0.00000  Uiso   1.00
C421   C     0.65236   0.58382   0.37818   0.00000  Uiso   1.00
C422   C     0.61179   0.64656   0.36842   0.00000  Uiso   1.00
C423   C     0.55904   0.77652   0.34451   0.00000  Uiso   1.00
C424   C     0.66707   0.30217   0.39388   0.00000  Uiso   1.00
C425   C     0.69760   0.24056   0.36437   0.00000  Uiso   1.00
C426   C     0.67771   0.14631   0.34828   0.00000  Uiso   1.00
C427   C     0.66312   0.98673   0.31273   0.00000  Uiso   1.00
C428   C     0.59162   0.35021   0.43939   0.00000  Uiso   1.00
C429   C     0.62405   0.36225   0.48058   0.00000  Uiso   1.00
C430   C     0.60887   0.34500   0.52654   0.00000  Uiso   1.00
C431   C     0.64413   0.36029   0.55910   0.00000  Uiso   1.00
C432   C     0.59382   0.45725   0.41436   0.00000  Uiso   1.00
C433   C     0.55322   0.51986   0.40462   0.00000  Uiso   1.00
C434   C     0.56303   0.61511   0.38142   0.00000  Uiso   1.00
C435   C     0.61840   0.27076   0.40686   0.00000  Uiso   1.00
C436   C     0.59846   0.17660   0.39081   0.00000  Uiso   1.00
C437   C     0.62895   0.11485   0.36129   0.00000  Uiso   1.00
H438   H     0.71912   0.43247   0.40538   0.00000  Uiso   1.00
H439   H     0.74567   0.43327   0.49004   0.00000  Uiso   1.00
H440   H     0.69003   0.60809   0.36813   0.00000  Uiso   1.00
H441   H     0.73526   0.26488   0.35433   0.00000  Uiso   1.00
H442   H     0.75364   0.42035   0.58962   0.00000  Uiso   1.00
H443   H     0.63632   0.78895   0.33256   0.00000  Uiso   1.00
H444   H     0.73169   0.06523   0.30345   0.00000  Uiso   1.00
H445   H     0.55373   0.32577   0.44950   0.00000  Uiso   1.00
H446   H     0.57120   0.32071   0.53658   0.00000  Uiso   1.00
H447   H     0.51556   0.49553   0.41467   0.00000  Uiso   1.00
H448   H     0.56079   0.15232   0.40087   0.00000  Uiso   1.00
H449   H     0.61203   0.32899   0.62739   0.00000  Uiso   1.00
H450   H     0.49471   0.69760   0.37033   0.00000  Uiso   1.00
H451   H     0.59009   0.97387   0.34122   0.00000  Uiso   1.00
O452   O     0.69731   0.37330   0.66499   0.00000  Uiso   1.00
O453   O     0.54339   0.85689   0.32774   0.00000  Uiso   1.00
O454   O     0.66852   0.90737   0.28954   0.00000  Uiso   1.00
N455   N     0.71792   0.39952   0.58656   0.00000  Uiso   1.00
N456   N     0.60823   0.74415   0.34623   0.00000  Uiso   1.00
N457   N     0.69739   0.06754   0.31900   0.00000  Uiso   1.00
N458   N     0.64172   0.35036   0.60688   0.00000  Uiso   1.00
N459   N     0.53203   0.69499   0.36656   0.00000  Uiso   1.00
N460   N     0.62120   0.01838   0.33933   0.00000  Uiso   1.00
C461   C     0.19608   0.61143   0.14108   0.00000  Uiso   1.00
C462   C     0.18469   0.63167   0.09084   0.00000  Uiso   1.00
C463   C     0.21805   0.62079   0.05288   0.00000  Uiso   1.00
C464   C     0.20041   0.64303   0.00979   0.00000  Uiso   1.00
C465   C     0.19021   0.66953   0.93253   0.00000  Uiso   1.00
C466   C     0.15841   0.52857   0.15918   0.00000  Uiso   1.00
C467   C     0.16967   0.43101   0.17868   0.00000  Uiso   1.00
C468   C     0.12990   0.36647   0.19312   0.00000  Uiso   1.00
C469   C     0.07890   0.23294   0.22199   0.00000  Uiso   1.00
C470   C     0.18302   0.71439   0.16702   0.00000  Uiso   1.00
C471   C     0.21497   0.77307   0.19312   0.00000  Uiso   1.00
C472   C     0.19592   0.86497   0.21417   0.00000  Uiso   1.00
C473   C     0.18313   0.01996   0.25521   0.00000  Uiso   1.00
C474   C     0.10543   0.67029   0.13204   0.00000  Uiso   1.00
C475   C     0.13545   0.66363   0.08594   0.00000  Uiso   1.00
C476   C     0.11776   0.68590   0.04289   0.00000  Uiso   1.00
C477   C     0.15109   0.67506   0.00487   0.00000  Uiso   1.00
C478   C     0.10917   0.56053   0.15427   0.00000  Uiso   1.00
C479   C     0.06938   0.49613   0.16869   0.00000  Uiso   1.00
C480   C     0.08058   0.39849   0.18821   0.00000  Uiso   1.00
C481   C     0.13378   0.74636   0.16211   0.00000  Uiso   1.00
C482   C     0.11468   0.83818   0.18313   0.00000  Uiso   1.00
C483   C     0.14660   0.89699   0.20926   0.00000  Uiso   1.00
H484   H     0.23441   0.58654   0.14490   0.00000  Uiso   1.00
H485   H     0.25615   0.59603   0.05669   0.00000  Uiso   1.00
H486   H     0.20777   0.40630   0.18248   0.00000  Uiso   1.00
H487   H     0.25307   0.74830   0.19691   0.00000  Uiso   1.00
H488   H     0.25853   0.62062   0.95674   0.00000  Uiso   1.00
H489   H     0.15653   0.22056   0.22197   0.00000  Uiso   1.00
H490   H     0.25205   0.94175   0.25242   0.00000  Uiso   1.00
H491   H     0.06710   0.69518   0.12822   0.00000  Uiso   1.00
H492   H     0.07966   0.71064   0.03910   0.00000  Uiso   1.00
H493   H     0.03128   0.52089   0.16489   0.00000  Uiso   1.00
H494   H     0.07658   0.86290   0.17932   0.00000  Uiso   1.00
H495   H     0.11528   0.71363   0.94246   0.00000  Uiso   1.00
H496   H     0.01328   0.31357   0.20770   0.00000  Uiso   1.00
H497   H     0.10880   0.03476   0.23814   0.00000  Uiso   1.00
O498   O     0.19818   0.67530   0.89128   0.00000  Uiso   1.00
O499   O     0.06436   0.15045   0.23926   0.00000  Uiso   1.00
O500   O     0.18968   0.09663   0.27920   0.00000  Uiso   1.00
N501   N     0.22310   0.64041   0.96561   0.00000  Uiso   1.00
N502   N     0.12773   0.26637   0.21358   0.00000  Uiso   1.00
N503   N     0.21703   0.94060   0.24205   0.00000  Uiso   1.00
N504   N     0.14602   0.69046   0.95793   0.00000  Uiso   1.00
N505   N     0.05065   0.31642   0.20590   0.00000  Uiso   1.00
N506   N     0.13995   0.99065   0.23437   0.00000  Uiso   1.00
C507   C     0.18123   0.90802   0.41549   0.00000  Uiso   1.00
C508   C     0.17272   0.89365   0.46760   0.00000  Uiso   1.00
C509   C     0.20801   0.90896   0.50010   0.00000  Uiso   1.00
C510   C     0.19289   0.89175   0.54609   0.00000  Uiso   1.00
C511   C     0.18708   0.87426   0.62504   0.00000  Uiso   1.00
C512   C     0.14249   0.98865   0.40137   0.00000  Uiso   1.00
C513   C     0.15236   0.08382   0.37818   0.00000  Uiso   1.00
C514   C     0.11179   0.14656   0.36842   0.00000  Uiso   1.00
C515   C     0.05904   0.27652   0.34451   0.00000  Uiso   1.00
C516   C     0.16707   0.80217   0.39388   0.00000  Uiso   1.00
C517   C     0.19760   0.74056   0.36437   0.00000  Uiso   1.00
C518   C     0.17771   0.64631   0.34828   0.00000  Uiso   1.00
C519   C     0.16312   0.48673   0.31273   0.00000  Uiso   1.00
C520   C     0.09162   0.85021   0.43939   0.00000  Uiso   1.00
C521   C     0.12405   0.86225   0.48058   0.00000  Uiso   1.00
C522   C     0.10887   0.84500   0.52654   0.00000  Uiso   1.00
C523   C     0.14413   0.86029   0.55910   0.00000  Uiso   1.00
C524   C     0.09382   0.95725   0.41436   0.00000  Uiso   1.00
C525   C     0.05322   0.01986   0.40462   0.00000  Uiso   1.00
C526   C     0.06303   0.11511   0.38142   0.00000  Uiso   1.00
C527   C     0.11840   0.77076   0.40686   0.00000  Uiso   1.00
C528   C     0.09846   0.67660   0.39081   0.00000  Uiso   1.00
C529   C     0.12895   0.61485   0.36129   0.00000  Uiso   1.00
H530   H     0.21912   0.93247   0.40538   0.00000  Uiso   1.00
H531   H     0.24567   0.93327   0.49004   0.00000  Uiso   1.00
H532   H     0.19003   0.10809   0.36813   0.00000  Uiso   1.00
H533   H     0.23526   0.76488   0.35433   0.00000  Uiso   1.00
H534   H     0.25364   0.92035   0.58962   0.00000  Uiso   1.00
H535   H     0.13632   0.28895   0.33256   0.00000  Uiso   1.00
H536   H     0.23169   0.56523   0.30345   0.00000  Uiso   1.00
H537   H     0.05373   0.82577   0.44950   0.00000  Uiso   1.00
H538   H     0.07120   0.82071   0.53658   0.00000  Uiso   1.00
H539   H     0.01556   0.99553   0.41467   0.00000  Uiso   1.00
H540   H     0.06079   0.65232   0.40087   0.00000  Uiso   1.00
H541   H     0.11203   0.82899   0.62739   0.00000  Uiso   1.00
H542   H     0.99471   0.19760   0.37033   0.00000  Uiso   1.00
H543   H     0.09009   0.47387   0.34122   0.00000  Uiso   1.00
O544   O     0.19731   0.87330   0.66499   0.00000  Uiso   1.00
O545   O     0.04339   0.35689   0.32774   0.00000  Uiso   1.00
O546   O     0.16852   0.40737   0.28954   0.00000  Uiso   1.00
N547   N     0.21792   0.89952   0.58656   0.00000  Uiso   1.00
N548   N     0.10823   0.24415   0.34623   0.00000  Uiso   1.00
N549   N     0.19739   0.56754   0.31900   0.00000  Uiso   1.00
N550   N     0.14172   0.85036   0.60688   0.00000  Uiso   1.00
N551   N     0.03203   0.19499   0.36656   0.00000  Uiso   1.00
N552   N     0.12120   0.51838   0.33933   0.00000  Uiso   1.00
C553   C     0.30392   0.11143   0.35892   0.00000  Uiso   1.00
C554   C     0.31531   0.13167   0.40916   0.00000  Uiso   1.00
C555   C     0.28195   0.12079   0.44712   0.00000  Uiso   1.00
C556   C     0.29959   0.14303   0.49021   0.00000  Uiso   1.00
C557   C     0.30979   0.16953   0.56747   0.00000  Uiso   1.00
C558   C     0.34159   0.02857   0.34082   0.00000  Uiso   1.00
C559   C     0.33033   0.93101   0.32132   0.00000  Uiso   1.00
C560   C     0.37010   0.86647   0.30688   0.00000  Uiso   1.00
C561   C     0.42110   0.73294   0.27801   0.00000  Uiso   1.00
C562   C     0.31698   0.21439   0.33298   0.00000  Uiso   1.00
C563   C     0.28503   0.27307   0.30688   0.00000  Uiso   1.00
C564   C     0.30408   0.36497   0.28583   0.00000  Uiso   1.00
C565   C     0.31687   0.51996   0.24479   0.00000  Uiso   1.00
C566   C     0.39457   0.17029   0.36796   0.00000  Uiso   1.00
C567   C     0.36455   0.16363   0.41406   0.00000  Uiso   1.00
C568   C     0.38224   0.18590   0.45711   0.00000  Uiso   1.00
C569   C     0.34891   0.17506   0.49513   0.00000  Uiso   1.00
C570   C     0.39083   0.06053   0.34573   0.00000  Uiso   1.00
C571   C     0.43062   0.99613   0.33131   0.00000  Uiso   1.00
C572   C     0.41942   0.89849   0.31179   0.00000  Uiso   1.00
C573   C     0.36622   0.24636   0.33789   0.00000  Uiso   1.00
C574   C     0.38532   0.33818   0.31687   0.00000  Uiso   1.00
C575   C     0.35340   0.39699   0.29074   0.00000  Uiso   1.00
H576   H     0.26559   0.08654   0.35510   0.00000  Uiso   1.00
H577   H     0.24385   0.09603   0.44331   0.00000  Uiso   1.00
H578   H     0.29223   0.90630   0.31752   0.00000  Uiso   1.00
H579   H     0.24693   0.24830   0.30309   0.00000  Uiso   1.00
H580   H     0.24147   0.12062   0.54326   0.00000  Uiso   1.00
H581   H     0.34347   0.72056   0.27803   0.00000  Uiso   1.00
H582   H     0.24795   0.44175   0.24758   0.00000  Uiso   1.00
H583   H     0.43290   0.19518   0.37178   0.00000  Uiso   1.00
H584   H     0.42034   0.21064   0.46090   0.00000  Uiso   1.00
H585   H     0.46872   0.02089   0.33511   0.00000  Uiso   1.00
H586   H     0.42342   0.36290   0.32068   0.00000  Uiso   1.00
H587   H     0.38472   0.21363   0.55754   0.00000  Uiso   1.00
H588   H     0.48672   0.81357   0.29230   0.00000  Uiso   1.00
H589   H     0.39120   0.53476   0.26186   0.00000  Uiso   1.00
O590   O     0.30182   0.17530   0.60872   0.00000  Uiso   1.00
O591   O     0.43564   0.65045   0.26074   0.00000  Uiso   1.00
O592   O     0.31032   0.59663   0.22080   0.00000  Uiso   1.00
N593   N     0.27690   0.14041   0.53439   0.00000  Uiso   1.00
N594   N     0.37227   0.76637   0.28642   0.00000  Uiso   1.00
N595   N     0.28297   0.44060   0.25795   0.00000  Uiso   1.00
N596   N     0.35398   0.19046   0.54207   0.00000  Uiso   1.00
N597   N     0.44935   0.81642   0.29410   0.00000  Uiso   1.00
N598   N     0.36005   0.49065   0.26563   0.00000  Uiso   1.00
C599   C     0.31877   0.40802   0.08451   0.00000  Uiso   1.00
C600   C     0.32728   0.39365   0.03240   0.00000  Uiso   1.00
C601   C     0.29199   0.40896   0.99990   0.00000  Uiso   1.00
C602   C     0.30711   0.39175   0.95391   0.00000  Uiso   1.00
C603   C     0.31292   0.37426   0.87496   0.00000  Uiso   1.00
C604   C     0.35751   0.48865   0.09863   0.00000  Uiso   1.00
C605   C     0.34764   0.58382   0.12182   0.00000  Uiso   1.00
C606   C     0.38821   0.64656   0.13158   0.00000  Uiso   1.00
C607   C     0.44096   0.77652   0.15549   0.00000  Uiso   1.00
C608   C     0.33293   0.30217   0.10612   0.00000  Uiso   1.00
C609   C     0.30240   0.24056   0.13563   0.00000  Uiso   1.00
C610   C     0.32229   0.14631   0.15172   0.00000  Uiso   1.00
C611   C     0.33688   0.98673   0.18727   0.00000  Uiso   1.00
C612   C     0.40838   0.35021   0.06061   0.00000  Uiso   1.00
C613   C     0.37595   0.36225   0.01942   0.00000  Uiso   1.00
C614   C     0.39113   0.34500   0.97346   0.00000  Uiso   1.00
C615   C     0.35587   0.36029   0.94090   0.00000  Uiso   1.00
C616   C     0.40618   0.45725   0.08564   0.00000  Uiso   1.00
C617   C     0.44678   0.51986   0.09538   0.00000  Uiso   1.00
C618   C     0.43697   0.61511   0.11858   0.00000  Uiso   1.00
C619   C     0.38160   0.27076   0.09314   0.00000  Uiso   1.00
C620   C     0.40154   0.17660   0.10919   0.00000  Uiso   1.00
C621   C     0.37105   0.11485   0.13871   0.00000  Uiso   1.00
H622   H     0.28088   0.43247   0.09462   0.00000  Uiso   1.00
H623   H     0.25433   0.43327   0.00996   0.00000  Uiso   1.00
H624   H     0.30997   0.60809   0.13187   0.00000  Uiso   1.00
H625   H     0.26474   0.26488   0.14567   0.00000  Uiso   1.00
H626   H     0.24636   0.42035   0.91038   0.00000  Uiso   1.00
H627   H     0.36368   0.78895   0.16744   0.00000  Uiso   1.00
H628   H     0.26831   0.06523   0.19655   0.00000  Uiso   1.00
H629   H     0.44627   0.32577   0.05050   0.00000  Uiso   1.00
H630   H     0.42880   0.32071   0.96342   0.00000  Uiso   1.00
H631   H     0.48444   0.49553   0.08533   0.00000  Uiso   1.00
H632   H     0.43921   0.15232   0.09913   0.00000  Uiso   1.00
H633   H     0.38797   0.32899   0.87261   0.00000  Uiso   1.00
H634   H     0.50529   0.69760   0.12967   0.00000  Uiso   1.00
H635   H     0.40991   0.97387   0.15878   0.00000  Uiso   1.00
O636   O     0.30269   0.37330   0.83501   0.00000  Uiso   1.00
O637   O     0.45661   0.85689   0.17226   0.00000  Uiso   1.00
O638   O     0.33148   0.90737   0.21046   0.00000  Uiso   1.00
N639   N     0.28208   0.39952   0.91344   0.00000  Uiso   1.00
N640   N     0.39177   0.74415   0.15377   0.00000  Uiso   1.00
N641   N     0.30261   0.06754   0.18100   0.00000  Uiso   1.00
N642   N     0.35828   0.35036   0.89312   0.00000  Uiso   1.00
N643   N     0.46797   0.69499   0.13344   0.00000  Uiso   1.00
N644   N     0.37880   0.01838   0.16067   0.00000  Uiso   1.00
C645   C     0.80392   0.61143   0.35892   0.00000  Uiso   1.00
C646   C     0.81531   0.63167   0.40916   0.00000  Uiso   1.00
C647   C     0.78195   0.62079   0.44712   0.00000  Uiso   1.00
C648   C     0.79959   0.64303   0.49021   0.00000  Uiso   1.00
C649   C     0.80979   0.66953   0.56747   0.00000  Uiso   1.00
C650   C     0.84159   0.52857   0.34082   0.00000  Uiso   1.00
C651   C     0.83033   0.43101   0.32132   0.00000  Uiso   1.00
C652   C     0.87010   0.36647   0.30688   0.00000  Uiso   1.00
C653   C     0.92110   0.23294   0.27801   0.00000  Uiso   1.00
C654   C     0.81698   0.71439   0.33298   0.00000  Uiso   1.00
C655   C     0.78503   0.77307   0.30688   0.00000  Uiso   1.00
C656   C     0.80408   0.86497   0.28583   0.00000  Uiso   1.00
C657   C     0.81687   0.01996   0.24479   0.00000  Uiso   1.00
C658   C     0.89457   0.67029   0.36796   0.00000  Uiso   1.00
C659   C     0.86455   0.66363   0.41406   0.00000  Uiso   1.00
C660   C     0.88224   0.68590   0.45711   0.00000  Uiso   1.00
C661   C     0.84891   0.67506   0.49513   0.00000  Uiso   1.00
C662   C     0.89083   0.56053   0.34573   0.00000  Uiso   1.00
C663   C     0.93062   0.49613   0.33131   0.00000  Uiso   1.00
C664   C     0.91942   0.39849   0.31179   0.00000  Uiso   1.00
C665   C     0.86622   0.74636   0.33789   0.00000  Uiso   1.00
C666   C     0.88532   0.83818   0.31687   0.00000  Uiso   1.00
C667   C     0.85340   0.89699   0.29074   0.00000  Uiso   1.00
H668   H     0.76559   0.58654   0.35510   0.00000  Uiso   1.00
H669   H     0.74385   0.59603   0.44331   0.00000  Uiso   1.00
H670   H     0.79223   0.40630   0.31752   0.00000  Uiso   1.00
H671   H     0.74693   0.74830   0.30309   0.00000  Uiso   1.00
H672   H     0.74147   0.62062   0.54326   0.00000  Uiso   1.00
H673   H     0.84347   0.22056   0.27803   0.00000  Uiso   1.00
H674   H     0.74795   0.94175   0.24758   0.00000  Uiso   1.00
H675   H     0.93290   0.69518   0.37178   0.00000  Uiso   1.00
H676   H     0.92034   0.71064   0.46090   0.00000  Uiso   1.00
H677   H     0.96872   0.52089   0.33511   0.00000  Uiso   1.00
H678   H     0.92342   0.86290   0.32068   0.00000  Uiso   1.00
H679   H     0.88472   0.71363   0.55754   0.00000  Uiso   1.00
H680   H     0.98672   0.31357   0.29230   0.00000  Uiso   1.00
H681   H     0.89120   0.03476   0.26186   0.00000  Uiso   1.00
O682   O     0.80182   0.67530   0.60872   0.00000  Uiso   1.00
O683   O     0.93564   0.15045   0.26074   0.00000  Uiso   1.00
O684   O     0.81032   0.09663   0.22080   0.00000  Uiso   1.00
N685   N     0.77690   0.64041   0.53439   0.00000  Uiso   1.00
N686   N     0.87227   0.26637   0.28642   0.00000  Uiso   1.00
N687   N     0.78297   0.94060   0.25795   0.00000  Uiso   1.00
N688   N     0.85398   0.69046   0.54207   0.00000  Uiso   1.00
N689   N     0.94935   0.31642   0.29410   0.00000  Uiso   1.00
N690   N     0.86005   0.99065   0.26563   0.00000  Uiso   1.00
C691   C     0.81877   0.90802   0.08451   0.00000  Uiso   1.00
C692   C     0.82728   0.89365   0.03240   0.00000  Uiso   1.00
C693   C     0.79199   0.90896   0.99990   0.00000  Uiso   1.00
C694   C     0.80711   0.89175   0.95391   0.00000  Uiso   1.00
C695   C     0.81292   0.87426   0.87496   0.00000  Uiso   1.00
C696   C     0.85751   0.98865   0.09863   0.00000  Uiso   1.00
C697   C     0.84764   0.08382   0.12182   0.00000  Uiso   1.00
C698   C     0.88821   0.14656   0.13158   0.00000  Uiso   1.00
C699   C     0.94096   0.27652   0.15549   0.00000  Uiso   1.00
C700   C     0.83293   0.80217   0.10612   0.00000  Uiso   1.00
C701   C     0.80240   0.74056   0.13563   0.00000  Uiso   1.00
C702   C     0.82229   0.64631   0.15172   0.00000  Uiso   1.00
C703   C     0.83688   0.48673   0.18727   0.00000  Uiso   1.00
C704   C     0.90838   0.85021   0.06061   0.00000  Uiso   1.00
C705   C     0.87595   0.86225   0.01942   0.00000  Uiso   1.00
C706   C     0.89113   0.84500   0.97346   0.00000  Uiso   1.00
C707   C     0.85587   0.86029   0.94090   0.00000  Uiso   1.00
C708   C     0.90618   0.95725   0.08564   0.00000  Uiso   1.00
C709   C     0.94678   0.01986   0.09538   0.00000  Uiso   1.00
C710   C     0.93697   0.11511   0.11858   0.00000  Uiso   1.00
C711   C     0.88160   0.77076   0.09314   0.00000  Uiso   1.00
C712   C     0.90154   0.67660   0.10919   0.00000  Uiso   1.00
C713   C     0.87105   0.61485   0.13871   0.00000  Uiso   1.00
H714   H     0.78088   0.93247   0.09462   0.00000  Uiso   1.00
H715   H     0.75433   0.93327   0.00996   0.00000  Uiso   1.00
H716   H     0.80997   0.10809   0.13187   0.00000  Uiso   1.00
H717   H     0.76474   0.76488   0.14567   0.00000  Uiso   1.00
H718   H     0.74636   0.92035   0.91038   0.00000  Uiso   1.00
H719   H     0.86368   0.28895   0.16744   0.00000  Uiso   1.00
H720   H     0.76831   0.56523   0.19655   0.00000  Uiso   1.00
H721   H     0.94627   0.82577   0.05050   0.00000  Uiso   1.00
H722   H     0.92880   0.82071   0.96342   0.00000  Uiso   1.00
H723   H     0.98444   0.99553   0.08533   0.00000  Uiso   1.00
H724   H     0.93921   0.65232   0.09913   0.00000  Uiso   1.00
H725   H     0.88797   0.82899   0.87261   0.00000  Uiso   1.00
H726   H     0.00529   0.19760   0.12967   0.00000  Uiso   1.00
H727   H     0.90991   0.47387   0.15878   0.00000  Uiso   1.00
O728   O     0.80269   0.87330   0.83501   0.00000  Uiso   1.00
O729   O     0.95661   0.35689   0.17226   0.00000  Uiso   1.00
O730   O     0.83148   0.40737   0.21046   0.00000  Uiso   1.00
N731   N     0.78208   0.89952   0.91344   0.00000  Uiso   1.00
N732   N     0.89177   0.24415   0.15377   0.00000  Uiso   1.00
N733   N     0.80261   0.56754   0.18100   0.00000  Uiso   1.00
N734   N     0.85828   0.85036   0.89312   0.00000  Uiso   1.00
N735   N     0.96797   0.19499   0.13344   0.00000  Uiso   1.00
N736   N     0.87880   0.51838   0.16067   0.00000  Uiso   1.00
