data_job_06893
_audit_creation_date              2018-12-19
_audit_creation_method            'Materials Studio'
_symmetry_space_group_name_H-M    'P1'
_symmetry_Int_Tables_number       1
_symmetry_cell_setting            triclinic
loop_
_symmetry_equiv_pos_as_xyz
  x,y,z
_cell_length_a                    26.7582
_cell_length_b                    40.2156
_cell_length_c                    23.6561
_cell_angle_alpha                 90.0000
_cell_angle_beta                  114.7567
_cell_angle_gamma                 90.0000
loop_
_atom_site_label
_atom_site_type_symbol
_atom_site_fract_x
_atom_site_fract_y
_atom_site_fract_z
_atom_site_U_iso_or_equiv
_atom_site_adp_type
_atom_site_occupancy
C1     C     0.72984   0.01632   0.48930   0.00000  Uiso   1.00
C2     C     0.76697   0.99448   0.47052   0.00000  Uiso   1.00
C3     C     0.82124   0.00131   0.48213   0.00000  Uiso   1.00
C4     C     0.84818   0.97821   0.46117   0.00000  Uiso   1.00
C5     C     0.90985   0.94870   0.43676   0.00000  Uiso   1.00
C6     C     0.67916   0.02373   0.42942   0.00000  Uiso   1.00
C7     C     0.15961   0.55513   0.40647   0.00000  Uiso   1.00
C8     C     0.11262   0.55665   0.35092   0.00000  Uiso   1.00
C9     C     0.03794   0.57254   0.26272   0.00000  Uiso   1.00
C10    C     0.71002   0.99432   0.52832   0.00000  Uiso   1.00
C11    C     0.71640   0.00102   0.58852   0.00000  Uiso   1.00
C12    C     0.69538   0.97778   0.61622   0.00000  Uiso   1.00
C13    C     0.66862   0.94802   0.68158   0.00000  Uiso   1.00
C14    C     0.18116   0.46316   0.43145   0.00000  Uiso   1.00
C15    C     0.74053   0.96561   0.43910   0.00000  Uiso   1.00
C16    C     0.76739   0.94249   0.41812   0.00000  Uiso   1.00
C17    C     0.82169   0.94928   0.42970   0.00000  Uiso   1.00
C18    C     0.65272   0.99485   0.39800   0.00000  Uiso   1.00
C19    C     0.60575   0.99632   0.34246   0.00000  Uiso   1.00
C20    C     0.58613   0.02772   0.31944   0.00000  Uiso   1.00
C21    C     0.18358   0.46545   0.49689   0.00000  Uiso   1.00
C22    C     0.66254   0.94220   0.52451   0.00000  Uiso   1.00
C23    C     0.66889   0.94885   0.58474   0.00000  Uiso   1.00
H24    H     0.25042   0.53880   0.51377   0.00000  Uiso   1.00
H25    H     0.84169   0.02366   0.50644   0.00000  Uiso   1.00
H26    H     0.18007   0.57748   0.43080   0.00000  Uiso   1.00
H27    H     0.73686   0.02337   0.61282   0.00000  Uiso   1.00
H28    H     0.93121   0.99414   0.48445   0.00000  Uiso   1.00
H29    H     0.09043   0.60762   0.32496   0.00000  Uiso   1.00
H30    H     0.71017   0.99351   0.70878   0.00000  Uiso   1.00
H31    H     0.16057   0.44068   0.40699   0.00000  Uiso   1.00
H32    H     0.74691   0.92014   0.39381   0.00000  Uiso   1.00
H33    H     0.58530   0.97396   0.31816   0.00000  Uiso   1.00
H34    H     0.14208   0.41985   0.50018   0.00000  Uiso   1.00
H35    H     0.85429   0.91012   0.39302   0.00000  Uiso   1.00
H36    H     0.51350   0.02360   0.23354   0.00000  Uiso   1.00
H37    H     0.63325   0.90950   0.61736   0.00000  Uiso   1.00
O38    O     0.95116   0.94040   0.43197   0.00000  Uiso   1.00
O39    O     0.00406   0.58928   0.22275   0.00000  Uiso   1.00
O40    O     0.66117   0.93958   0.72631   0.00000  Uiso   1.00
N41    N     0.90126   0.97718   0.46475   0.00000  Uiso   1.00
N42    N     0.08265   0.58328   0.31564   0.00000  Uiso   1.00
N43    N     0.69459   0.97660   0.67447   0.00000  Uiso   1.00
N44    N     0.85987   0.93197   0.41556   0.00000  Uiso   1.00
N45    N     0.54126   0.03807   0.26644   0.00000  Uiso   1.00
N46    N     0.65320   0.93140   0.62528   0.00000  Uiso   1.00
C47    C     0.52484   0.67127   0.65589   0.00000  Uiso   1.00
C48    C     0.46931   0.68137   0.60494   0.00000  Uiso   1.00
C49    C     0.94031   0.16408   0.55008   0.00000  Uiso   1.00
C50    C     0.39025   0.67742   0.50944   0.00000  Uiso   1.00
C51    C     0.30713   0.68860   0.42821   0.00000  Uiso   1.00
C52    C     0.56316   0.70076   0.66443   0.00000  Uiso   1.00
C53    C     0.11307   0.19979   0.65959   0.00000  Uiso   1.00
C54    C     0.14202   0.22945   0.66902   0.00000  Uiso   1.00
C55    C     0.20461   0.27075   0.68019   0.00000  Uiso   1.00
C56    C     0.51647   0.66897   0.71569   0.00000  Uiso   1.00
C57    C     0.52714   0.64127   0.75397   0.00000  Uiso   1.00
C58    C     0.51678   0.64417   0.80658   0.00000  Uiso   1.00
C59    C     0.50689   0.63611   0.89735   0.00000  Uiso   1.00
C60    C     0.48751   0.72568   0.68126   0.00000  Uiso   1.00
C61    C     0.44904   0.71092   0.61872   0.00000  Uiso   1.00
C62    C     0.39901   0.72428   0.57815   0.00000  Uiso   1.00
C63    C     0.36993   0.70702   0.52324   0.00000  Uiso   1.00
C64    C     0.54289   0.73032   0.67820   0.00000  Uiso   1.00
C65    C     0.57177   0.75998   0.68765   0.00000  Uiso   1.00
C66    C     0.62170   0.75906   0.68283   0.00000  Uiso   1.00
C67    C     0.49619   0.69853   0.72947   0.00000  Uiso   1.00
C68    C     0.48583   0.70147   0.78204   0.00000  Uiso   1.00
C69    C     0.49647   0.67378   0.82039   0.00000  Uiso   1.00
H70    H     0.04063   0.14827   0.64517   0.00000  Uiso   1.00
H71    H     0.95602   0.14122   0.53944   0.00000  Uiso   1.00
H72    H     0.12876   0.17692   0.64893   0.00000  Uiso   1.00
H73    H     0.54283   0.61841   0.74330   0.00000  Uiso   1.00
H74    H     0.85328   0.14644   0.42828   0.00000  Uiso   1.00
H75    H     0.21751   0.22171   0.65917   0.00000  Uiso   1.00
H76    H     0.53632   0.59834   0.85817   0.00000  Uiso   1.00
H77    H     0.47172   0.74869   0.69199   0.00000  Uiso   1.00
H78    H     0.38332   0.74715   0.58882   0.00000  Uiso   1.00
H79    H     0.55606   0.78285   0.69832   0.00000  Uiso   1.00
H80    H     0.47013   0.72434   0.79268   0.00000  Uiso   1.00
H81    H     0.29428   0.73242   0.46836   0.00000  Uiso   1.00
H82    H     0.65851   0.80769   0.69926   0.00000  Uiso   1.00
H83    H     0.47732   0.68432   0.89825   0.00000  Uiso   1.00
O84    O     0.26688   0.68661   0.37960   0.00000  Uiso   1.00
O85    O     0.24474   0.28536   0.68254   0.00000  Uiso   1.00
O86    O     0.00702   0.12350   0.94361   0.00000  Uiso   1.00
N87    N     0.85152   0.16688   0.45187   0.00000  Uiso   1.00
N88    N     0.19205   0.23726   0.66774   0.00000  Uiso   1.00
N89    N     0.52267   0.62192   0.85379   0.00000  Uiso   1.00
N90    N     0.31977   0.71315   0.47344   0.00000  Uiso   1.00
N91    N     0.66030   0.78352   0.68931   0.00000  Uiso   1.00
N92    N     0.49092   0.66818   0.87536   0.00000  Uiso   1.00
C93    C     0.12518   0.95799   0.74619   0.00000  Uiso   1.00
C94    C     0.16409   0.98049   0.73152   0.00000  Uiso   1.00
C95    C     0.14848   0.00426   0.68475   0.00000  Uiso   1.00
C96    C     0.19030   0.02229   0.67886   0.00000  Uiso   1.00
C97    C     0.24229   0.05806   0.65007   0.00000  Uiso   1.00
C98    C     0.14343   0.92246   0.74234   0.00000  Uiso   1.00
C99    C     0.11045   0.89744   0.70467   0.00000  Uiso   1.00
C100   C     0.13488   0.86662   0.70789   0.00000  Uiso   1.00
C101   C     0.15478   0.81230   0.69592   0.00000  Uiso   1.00
C102   C     0.13793   0.96398   0.81451   0.00000  Uiso   1.00
C103   C     0.10032   0.97386   0.83753   0.00000  Uiso   1.00
C104   C     0.62011   0.47799   0.90152   0.00000  Uiso   1.00
C105   C     0.13147   0.98813   0.00161   0.00000  Uiso   1.00
C106   C     0.22719   0.94772   0.81889   0.00000  Uiso   1.00
C107   C     0.21950   0.97491   0.77102   0.00000  Uiso   1.00
C108   C     0.26135   0.99291   0.76520   0.00000  Uiso   1.00
C109   C     0.24581   0.01671   0.71842   0.00000  Uiso   1.00
C110   C     0.19884   0.91688   0.78183   0.00000  Uiso   1.00
C111   C     0.22332   0.88609   0.78511   0.00000  Uiso   1.00
C112   C     0.19039   0.86103   0.74745   0.00000  Uiso   1.00
C113   C     0.19334   0.95840   0.85401   0.00000  Uiso   1.00
C114   C     0.21319   0.96251   0.91797   0.00000  Uiso   1.00
C115   C     0.67562   0.47240   0.94108   0.00000  Uiso   1.00
H116   H     0.08204   0.96232   0.71544   0.00000  Uiso   1.00
H117   H     0.10560   0.00857   0.65420   0.00000  Uiso   1.00
H118   H     0.06757   0.90176   0.67412   0.00000  Uiso   1.00
H119   H     0.05745   0.97818   0.80696   0.00000  Uiso   1.00
H120   H     0.15615   0.05737   0.60370   0.00000  Uiso   1.00
H121   H     0.07597   0.83217   0.64571   0.00000  Uiso   1.00
H122   H     0.05461   0.99329   0.92583   0.00000  Uiso   1.00
H123   H     0.27033   0.94338   0.84964   0.00000  Uiso   1.00
H124   H     0.30422   0.98859   0.79576   0.00000  Uiso   1.00
H125   H     0.26620   0.88178   0.81568   0.00000  Uiso   1.00
H126   H     0.25607   0.95819   0.94852   0.00000  Uiso   1.00
H127   H     0.31736   0.04115   0.71860   0.00000  Uiso   1.00
H128   H     0.23718   0.81595   0.76061   0.00000  Uiso   1.00
H129   H     0.21582   0.97708   0.04073   0.00000  Uiso   1.00
O130   O     0.25566   0.07933   0.62327   0.00000  Uiso   1.00
O131   O     0.15045   0.78388   0.67840   0.00000  Uiso   1.00
O132   O     0.12244   0.99527   0.04591   0.00000  Uiso   1.00
N133   N     0.18944   0.04735   0.63814   0.00000  Uiso   1.00
N134   N     0.11448   0.83680   0.67742   0.00000  Uiso   1.00
N135   N     0.09451   0.98744   0.93931   0.00000  Uiso   1.00
N136   N     0.27619   0.03863   0.69997   0.00000  Uiso   1.00
N137   N     0.20122   0.82808   0.73924   0.00000  Uiso   1.00
N138   N     0.18125   0.97871   0.00113   0.00000  Uiso   1.00
C139   C     0.14750   0.11665   0.25513   0.00000  Uiso   1.00
C140   C     0.18406   0.09175   0.24154   0.00000  Uiso   1.00
C141   C     0.16691   0.06971   0.19186   0.00000  Uiso   1.00
C142   C     0.20666   0.04897   0.18758   0.00000  Uiso   1.00
C143   C     0.25507   0.01014   0.15979   0.00000  Uiso   1.00
C144   C     0.17366   0.15067   0.25811   0.00000  Uiso   1.00
C145   C     0.14777   0.17815   0.22237   0.00000  Uiso   1.00
C146   C     0.17877   0.20701   0.23206   0.00000  Uiso   1.00
C147   C     0.71103   0.75964   0.23003   0.00000  Uiso   1.00
C148   C     0.15407   0.10914   0.32106   0.00000  Uiso   1.00
C149   C     0.11171   0.10172   0.33826   0.00000  Uiso   1.00
C150   C     0.12622   0.09562   0.40095   0.00000  Uiso   1.00
C151   C     0.12806   0.08378   0.49667   0.00000  Uiso   1.00
C152   C     0.24860   0.11901   0.33587   0.00000  Uiso   1.00
C153   C     0.23897   0.09304   0.28539   0.00000  Uiso   1.00
C154   C     0.27876   0.07233   0.28119   0.00000  Uiso   1.00
C155   C     0.26167   0.05025   0.23152   0.00000  Uiso   1.00
C156   C     0.22857   0.15195   0.30196   0.00000  Uiso   1.00
C157   C     0.25962   0.18077   0.31171   0.00000  Uiso   1.00
C158   C     0.23378   0.20829   0.27599   0.00000  Uiso   1.00
C159   C     0.20899   0.11042   0.36492   0.00000  Uiso   1.00
C160   C     0.22356   0.10434   0.42759   0.00000  Uiso   1.00
C161   C     0.18123   0.09690   0.44489   0.00000  Uiso   1.00
H162   H     0.10476   0.11565   0.22098   0.00000  Uiso   1.00
H163   H     0.12441   0.06872   0.15793   0.00000  Uiso   1.00
H164   H     0.10527   0.17715   0.18844   0.00000  Uiso   1.00
H165   H     0.06922   0.10073   0.30431   0.00000  Uiso   1.00
H166   H     0.17042   0.01728   0.10734   0.00000  Uiso   1.00
H167   H     0.13006   0.24591   0.17171   0.00000  Uiso   1.00
H168   H     0.05404   0.08475   0.41604   0.00000  Uiso   1.00
H169   H     0.29135   0.12001   0.37001   0.00000  Uiso   1.00
H170   H     0.32125   0.07333   0.31514   0.00000  Uiso   1.00
H171   H     0.30211   0.18176   0.34565   0.00000  Uiso   1.00
H172   H     0.26606   0.10533   0.46152   0.00000  Uiso   1.00
H173   H     0.33018   0.02101   0.23494   0.00000  Uiso   1.00
H174   H     0.78982   0.74965   0.29930   0.00000  Uiso   1.00
H175   H     0.21380   0.08849   0.54363   0.00000  Uiso   1.00
O176   O     0.26661   0.98836   0.13234   0.00000  Uiso   1.00
O177   O     0.71365   0.78832   0.21679   0.00000  Uiso   1.00
O178   O     0.11391   0.07688   0.53734   0.00000  Uiso   1.00
N179   N     0.20392   0.02456   0.14491   0.00000  Uiso   1.00
N180   N     0.16619   0.23831   0.20508   0.00000  Uiso   1.00
N181   N     0.09511   0.08765   0.43351   0.00000  Uiso   1.00
N182   N     0.28988   0.02657   0.21357   0.00000  Uiso   1.00
N183   N     0.75215   0.74032   0.27374   0.00000  Uiso   1.00
N184   N     0.18107   0.08966   0.50217   0.00000  Uiso   1.00
C185   C     0.80388   0.08937   0.04121   0.00000  Uiso   1.00
C186   C     0.82039   0.11929   0.01326   0.00000  Uiso   1.00
C187   C     0.86607   0.12113   0.99983   0.00000  Uiso   1.00
C188   C     0.87400   0.15069   0.97440   0.00000  Uiso   1.00
C189   C     0.90516   0.19309   0.93273   0.00000  Uiso   1.00
C190   C     0.74530   0.08058   0.99579   0.00000  Uiso   1.00
C191   C     0.72785   0.04987   0.96768   0.00000  Uiso   1.00
C192   C     0.67257   0.04685   0.92755   0.00000  Uiso   1.00
C193   C     0.58716   0.02914   0.85880   0.00000  Uiso   1.00
C194   C     0.79993   0.10197   0.10000   0.00000  Uiso   1.00
C195   C     0.82840   0.08923   0.15950   0.00000  Uiso   1.00
C196   C     0.81910   0.10421   0.20711   0.00000  Uiso   1.00
C197   C     0.81851   0.11970   0.30015   0.00000  Uiso   1.00
C198   C     0.73673   0.13862   0.01995   0.00000  Uiso   1.00
C199   C     0.78391   0.14604   0.00171   0.00000  Uiso   1.00
C200   C     0.79178   0.17562   0.97630   0.00000  Uiso   1.00
C201   C     0.83746   0.17749   0.96283   0.00000  Uiso   1.00
C202   C     0.70883   0.10733   0.98424   0.00000  Uiso   1.00
C203   C     0.65356   0.10436   0.94415   0.00000  Uiso   1.00
C204   C     0.63603   0.07365   0.91598   0.00000  Uiso   1.00
C205   C     0.76346   0.12872   0.08845   0.00000  Uiso   1.00
C206   C     0.75411   0.14372   0.13598   0.00000  Uiso   1.00
C207   C     0.78256   0.13101   0.19554   0.00000  Uiso   1.00
H208   H     0.83227   0.06854   0.05020   0.00000  Uiso   1.00
H209   H     0.89428   0.10042   0.00876   0.00000  Uiso   1.00
H210   H     0.75608   0.02917   0.97663   0.00000  Uiso   1.00
H211   H     0.85662   0.06853   0.16842   0.00000  Uiso   1.00
H212   H     0.94693   0.14755   0.95771   0.00000  Uiso   1.00
H213   H     0.65554   0.99732   0.88997   0.00000  Uiso   1.00
H214   H     0.86753   0.08031   0.29440   0.00000  Uiso   1.00
H215   H     0.70833   0.15945   0.01096   0.00000  Uiso   1.00
H216   H     0.76354   0.19632   0.96737   0.00000  Uiso   1.00
H217   H     0.62535   0.12507   0.93523   0.00000  Uiso   1.00
H218   H     0.72588   0.16442   0.12702   0.00000  Uiso   1.00
H219   H     0.84082   0.22539   0.92411   0.00000  Uiso   1.00
H220   H     0.54943   0.07516   0.85637   0.00000  Uiso   1.00
H221   H     0.76142   0.15815   0.26080   0.00000  Uiso   1.00
O222   O     0.43242   0.70908   0.91293   0.00000  Uiso   1.00
O223   O     0.55013   0.01198   0.82406   0.00000  Uiso   1.00
O224   O     0.82826   0.12086   0.35466   0.00000  Uiso   1.00
N225   N     0.91439   0.16082   0.95580   0.00000  Uiso   1.00
N226   N     0.64195   0.02036   0.89245   0.00000  Uiso   1.00
N227   N     0.84014   0.09794   0.27056   0.00000  Uiso   1.00
N228   N     0.85729   0.20270   0.93772   0.00000  Uiso   1.00
N229   N     0.58486   0.06224   0.87437   0.00000  Uiso   1.00
N230   N     0.78304   0.13982   0.25248   0.00000  Uiso   1.00
C231   C     0.07346   0.94330   0.18179   0.00000  Uiso   1.00
C232   C     0.02316   0.92463   0.13607   0.00000  Uiso   1.00
C233   C     0.99255   0.93304   0.07416   0.00000  Uiso   1.00
C234   C     0.94802   0.91281   0.04007   0.00000  Uiso   1.00
C235   C     0.87197   0.88802   0.96498   0.00000  Uiso   1.00
C236   C     0.11985   0.91781   0.20654   0.00000  Uiso   1.00
C237   C     0.17053   0.92050   0.20387   0.00000  Uiso   1.00
C238   C     0.20740   0.89452   0.22911   0.00000  Uiso   1.00
C239   C     0.28148   0.85916   0.26346   0.00000  Uiso   1.00
C240   C     0.06049   0.95256   0.23671   0.00000  Uiso   1.00
C241   C     0.06127   0.98446   0.25944   0.00000  Uiso   1.00
C242   C     0.04817   0.98774   0.31010   0.00000  Uiso   1.00
C243   C     0.03008   0.00633   0.39130   0.00000  Uiso   1.00
C244   C     0.04883   0.89239   0.23135   0.00000  Uiso   1.00
C245   C     0.00978   0.89698   0.16299   0.00000  Uiso   1.00
C246   C     0.96529   0.87672   0.12899   0.00000  Uiso   1.00
C247   C     0.93461   0.88511   0.06703   0.00000  Uiso   1.00
C248   C     0.10647   0.89016   0.23345   0.00000  Uiso   1.00
C249   C     0.14327   0.86417   0.25870   0.00000  Uiso   1.00
C250   C     0.19400   0.86682   0.25608   0.00000  Uiso   1.00
C251   C     0.04711   0.92491   0.26363   0.00000  Uiso   1.00
C252   C     0.03401   0.92814   0.31427   0.00000  Uiso   1.00
C253   C     0.03477   0.96004   0.33706   0.00000  Uiso   1.00
H254   H     0.08388   0.96482   0.16083   0.00000  Uiso   1.00
H255   H     0.00292   0.95444   0.05334   0.00000  Uiso   1.00
H256   H     0.18088   0.94190   0.18305   0.00000  Uiso   1.00
H257   H     0.07163   0.00585   0.23860   0.00000  Uiso   1.00
H258   H     0.90727   0.93074   0.94603   0.00000  Uiso   1.00
H259   H     0.28251   0.90429   0.21954   0.00000  Uiso   1.00
H260   H     0.05214   0.03915   0.33669   0.00000  Uiso   1.00
H261   H     0.03841   0.87086   0.25230   0.00000  Uiso   1.00
H262   H     0.95495   0.85532   0.14983   0.00000  Uiso   1.00
H263   H     0.13291   0.84278   0.27953   0.00000  Uiso   1.00
H264   H     0.02366   0.90673   0.33509   0.00000  Uiso   1.00
H265   H     0.86833   0.85029   0.02435   0.00000  Uiso   1.00
H266   H     0.24358   0.82384   0.29786   0.00000  Uiso   1.00
H267   H     0.01321   0.95870   0.41500   0.00000  Uiso   1.00
O268   O     0.83373   0.88198   0.91612   0.00000  Uiso   1.00
O269   O     0.32603   0.84729   0.27497   0.00000  Uiso   1.00
O270   O     0.02379   0.02422   0.42865   0.00000  Uiso   1.00
N271   N     0.90955   0.91394   0.97853   0.00000  Uiso   1.00
N272   N     0.26038   0.88921   0.23423   0.00000  Uiso   1.00
N273   N     0.04502   0.01529   0.34377   0.00000  Uiso   1.00
N274   N     0.88860   0.87065   0.02067   0.00000  Uiso   1.00
N275   N     0.23942   0.84592   0.27637   0.00000  Uiso   1.00
N276   N     0.02407   0.97200   0.38591   0.00000  Uiso   1.00
C277   C     0.22984   0.51632   0.48930   0.00000  Uiso   1.00
C278   C     0.26697   0.49448   0.47052   0.00000  Uiso   1.00
C279   C     0.32124   0.50131   0.48213   0.00000  Uiso   1.00
C280   C     0.34818   0.47821   0.46117   0.00000  Uiso   1.00
C281   C     0.40985   0.44870   0.43676   0.00000  Uiso   1.00
C282   C     0.17916   0.52373   0.42942   0.00000  Uiso   1.00
C283   C     0.65961   0.05513   0.40647   0.00000  Uiso   1.00
C284   C     0.61262   0.05665   0.35092   0.00000  Uiso   1.00
C285   C     0.53794   0.07254   0.26272   0.00000  Uiso   1.00
C286   C     0.21002   0.49432   0.52832   0.00000  Uiso   1.00
C287   C     0.21640   0.50102   0.58852   0.00000  Uiso   1.00
C288   C     0.19538   0.47778   0.61622   0.00000  Uiso   1.00
C289   C     0.16862   0.44802   0.68158   0.00000  Uiso   1.00
C290   C     0.68116   0.96316   0.43145   0.00000  Uiso   1.00
C291   C     0.24053   0.46561   0.43910   0.00000  Uiso   1.00
C292   C     0.26739   0.44249   0.41812   0.00000  Uiso   1.00
C293   C     0.32169   0.44928   0.42970   0.00000  Uiso   1.00
C294   C     0.15272   0.49485   0.39800   0.00000  Uiso   1.00
C295   C     0.10575   0.49632   0.34246   0.00000  Uiso   1.00
C296   C     0.08613   0.52772   0.31944   0.00000  Uiso   1.00
C297   C     0.68358   0.96545   0.49689   0.00000  Uiso   1.00
C298   C     0.16254   0.44220   0.52451   0.00000  Uiso   1.00
C299   C     0.16889   0.44885   0.58474   0.00000  Uiso   1.00
H300   H     0.75042   0.03880   0.51377   0.00000  Uiso   1.00
H301   H     0.34169   0.52366   0.50644   0.00000  Uiso   1.00
H302   H     0.68007   0.07748   0.43080   0.00000  Uiso   1.00
H303   H     0.23686   0.52337   0.61282   0.00000  Uiso   1.00
H304   H     0.43121   0.49414   0.48445   0.00000  Uiso   1.00
H305   H     0.59043   0.10762   0.32496   0.00000  Uiso   1.00
H306   H     0.21017   0.49351   0.70878   0.00000  Uiso   1.00
H307   H     0.66057   0.94068   0.40699   0.00000  Uiso   1.00
H308   H     0.24691   0.42014   0.39381   0.00000  Uiso   1.00
H309   H     0.08530   0.47396   0.31816   0.00000  Uiso   1.00
H310   H     0.64208   0.91985   0.50018   0.00000  Uiso   1.00
H311   H     0.35429   0.41012   0.39302   0.00000  Uiso   1.00
H312   H     0.01350   0.52360   0.23354   0.00000  Uiso   1.00
H313   H     0.13325   0.40950   0.61736   0.00000  Uiso   1.00
O314   O     0.45116   0.44040   0.43197   0.00000  Uiso   1.00
O315   O     0.50406   0.08928   0.22275   0.00000  Uiso   1.00
O316   O     0.16117   0.43958   0.72631   0.00000  Uiso   1.00
N317   N     0.40126   0.47718   0.46475   0.00000  Uiso   1.00
N318   N     0.58265   0.08328   0.31564   0.00000  Uiso   1.00
N319   N     0.19459   0.47660   0.67447   0.00000  Uiso   1.00
N320   N     0.35987   0.43197   0.41556   0.00000  Uiso   1.00
N321   N     0.04126   0.53807   0.26644   0.00000  Uiso   1.00
N322   N     0.15320   0.43140   0.62528   0.00000  Uiso   1.00
C323   C     0.02484   0.17127   0.65589   0.00000  Uiso   1.00
C324   C     0.96931   0.18137   0.60494   0.00000  Uiso   1.00
C325   C     0.44031   0.66408   0.55008   0.00000  Uiso   1.00
C326   C     0.89025   0.17742   0.50944   0.00000  Uiso   1.00
C327   C     0.80713   0.18860   0.42821   0.00000  Uiso   1.00
C328   C     0.06316   0.20076   0.66443   0.00000  Uiso   1.00
C329   C     0.61307   0.69979   0.65959   0.00000  Uiso   1.00
C330   C     0.64202   0.72945   0.66902   0.00000  Uiso   1.00
C331   C     0.70461   0.77075   0.68019   0.00000  Uiso   1.00
C332   C     0.01647   0.16897   0.71569   0.00000  Uiso   1.00
C333   C     0.02714   0.14127   0.75397   0.00000  Uiso   1.00
C334   C     0.01678   0.14417   0.80658   0.00000  Uiso   1.00
C335   C     0.00689   0.13611   0.89735   0.00000  Uiso   1.00
C336   C     0.98751   0.22568   0.68126   0.00000  Uiso   1.00
C337   C     0.94904   0.21092   0.61872   0.00000  Uiso   1.00
C338   C     0.89901   0.22428   0.57815   0.00000  Uiso   1.00
C339   C     0.86993   0.20702   0.52324   0.00000  Uiso   1.00
C340   C     0.04289   0.23032   0.67820   0.00000  Uiso   1.00
C341   C     0.07177   0.25998   0.68765   0.00000  Uiso   1.00
C342   C     0.12170   0.25906   0.68283   0.00000  Uiso   1.00
C343   C     0.99619   0.19853   0.72947   0.00000  Uiso   1.00
C344   C     0.98583   0.20147   0.78204   0.00000  Uiso   1.00
C345   C     0.99647   0.17378   0.82039   0.00000  Uiso   1.00
H346   H     0.54063   0.64827   0.64517   0.00000  Uiso   1.00
H347   H     0.45602   0.64122   0.53944   0.00000  Uiso   1.00
H348   H     0.62876   0.67692   0.64893   0.00000  Uiso   1.00
H349   H     0.04283   0.11841   0.74330   0.00000  Uiso   1.00
H350   H     0.35328   0.64644   0.42828   0.00000  Uiso   1.00
H351   H     0.71751   0.72171   0.65917   0.00000  Uiso   1.00
H352   H     0.03632   0.09834   0.85817   0.00000  Uiso   1.00
H353   H     0.97172   0.24869   0.69199   0.00000  Uiso   1.00
H354   H     0.88332   0.24715   0.58882   0.00000  Uiso   1.00
H355   H     0.05606   0.28285   0.69832   0.00000  Uiso   1.00
H356   H     0.97013   0.22434   0.79268   0.00000  Uiso   1.00
H357   H     0.79428   0.23242   0.46836   0.00000  Uiso   1.00
H358   H     0.15851   0.30769   0.69926   0.00000  Uiso   1.00
H359   H     0.97732   0.18432   0.89825   0.00000  Uiso   1.00
O360   O     0.76688   0.18661   0.37960   0.00000  Uiso   1.00
O361   O     0.74474   0.78536   0.68254   0.00000  Uiso   1.00
O362   O     0.50702   0.62350   0.94361   0.00000  Uiso   1.00
N363   N     0.35152   0.66688   0.45187   0.00000  Uiso   1.00
N364   N     0.69205   0.73726   0.66774   0.00000  Uiso   1.00
N365   N     0.02267   0.12192   0.85379   0.00000  Uiso   1.00
N366   N     0.81977   0.21315   0.47344   0.00000  Uiso   1.00
N367   N     0.16030   0.28352   0.68931   0.00000  Uiso   1.00
N368   N     0.99092   0.16818   0.87536   0.00000  Uiso   1.00
C369   C     0.62518   0.45799   0.74619   0.00000  Uiso   1.00
C370   C     0.66409   0.48049   0.73152   0.00000  Uiso   1.00
C371   C     0.64848   0.50426   0.68475   0.00000  Uiso   1.00
C372   C     0.69030   0.52229   0.67886   0.00000  Uiso   1.00
C373   C     0.74229   0.55806   0.65007   0.00000  Uiso   1.00
C374   C     0.64343   0.42246   0.74234   0.00000  Uiso   1.00
C375   C     0.61045   0.39744   0.70467   0.00000  Uiso   1.00
C376   C     0.63488   0.36662   0.70789   0.00000  Uiso   1.00
C377   C     0.65478   0.31230   0.69592   0.00000  Uiso   1.00
C378   C     0.63793   0.46398   0.81451   0.00000  Uiso   1.00
C379   C     0.60032   0.47386   0.83753   0.00000  Uiso   1.00
C380   C     0.12011   0.97799   0.90152   0.00000  Uiso   1.00
C381   C     0.63147   0.48813   0.00161   0.00000  Uiso   1.00
C382   C     0.72719   0.44772   0.81889   0.00000  Uiso   1.00
C383   C     0.71950   0.47491   0.77102   0.00000  Uiso   1.00
C384   C     0.76135   0.49291   0.76520   0.00000  Uiso   1.00
C385   C     0.74581   0.51671   0.71842   0.00000  Uiso   1.00
C386   C     0.69884   0.41688   0.78183   0.00000  Uiso   1.00
C387   C     0.72332   0.38609   0.78511   0.00000  Uiso   1.00
C388   C     0.69039   0.36103   0.74745   0.00000  Uiso   1.00
C389   C     0.69334   0.45840   0.85401   0.00000  Uiso   1.00
C390   C     0.71319   0.46251   0.91797   0.00000  Uiso   1.00
C391   C     0.17562   0.97240   0.94108   0.00000  Uiso   1.00
H392   H     0.58204   0.46232   0.71544   0.00000  Uiso   1.00
H393   H     0.60560   0.50857   0.65420   0.00000  Uiso   1.00
H394   H     0.56757   0.40176   0.67412   0.00000  Uiso   1.00
H395   H     0.55745   0.47818   0.80696   0.00000  Uiso   1.00
H396   H     0.65615   0.55737   0.60370   0.00000  Uiso   1.00
H397   H     0.57597   0.33217   0.64571   0.00000  Uiso   1.00
H398   H     0.55461   0.49329   0.92583   0.00000  Uiso   1.00
H399   H     0.77033   0.44338   0.84964   0.00000  Uiso   1.00
H400   H     0.80422   0.48859   0.79576   0.00000  Uiso   1.00
H401   H     0.76620   0.38178   0.81568   0.00000  Uiso   1.00
H402   H     0.75607   0.45819   0.94852   0.00000  Uiso   1.00
H403   H     0.81736   0.54115   0.71860   0.00000  Uiso   1.00
H404   H     0.73718   0.31595   0.76061   0.00000  Uiso   1.00
H405   H     0.71582   0.47708   0.04073   0.00000  Uiso   1.00
O406   O     0.75566   0.57933   0.62327   0.00000  Uiso   1.00
O407   O     0.65045   0.28388   0.67840   0.00000  Uiso   1.00
O408   O     0.62244   0.49527   0.04591   0.00000  Uiso   1.00
N409   N     0.68944   0.54735   0.63814   0.00000  Uiso   1.00
N410   N     0.61448   0.33680   0.67742   0.00000  Uiso   1.00
N411   N     0.59451   0.48744   0.93931   0.00000  Uiso   1.00
N412   N     0.77619   0.53863   0.69997   0.00000  Uiso   1.00
N413   N     0.70122   0.32808   0.73924   0.00000  Uiso   1.00
N414   N     0.68125   0.47871   0.00113   0.00000  Uiso   1.00
C415   C     0.64750   0.61665   0.25513   0.00000  Uiso   1.00
C416   C     0.68406   0.59175   0.24154   0.00000  Uiso   1.00
C417   C     0.66691   0.56971   0.19186   0.00000  Uiso   1.00
C418   C     0.70666   0.54897   0.18758   0.00000  Uiso   1.00
C419   C     0.75507   0.51014   0.15979   0.00000  Uiso   1.00
C420   C     0.67366   0.65067   0.25811   0.00000  Uiso   1.00
C421   C     0.64777   0.67815   0.22237   0.00000  Uiso   1.00
C422   C     0.67877   0.70701   0.23206   0.00000  Uiso   1.00
C423   C     0.21103   0.25964   0.23003   0.00000  Uiso   1.00
C424   C     0.65407   0.60914   0.32106   0.00000  Uiso   1.00
C425   C     0.61171   0.60172   0.33826   0.00000  Uiso   1.00
C426   C     0.62622   0.59562   0.40095   0.00000  Uiso   1.00
C427   C     0.62806   0.58378   0.49667   0.00000  Uiso   1.00
C428   C     0.74860   0.61901   0.33587   0.00000  Uiso   1.00
C429   C     0.73897   0.59304   0.28539   0.00000  Uiso   1.00
C430   C     0.77876   0.57233   0.28119   0.00000  Uiso   1.00
C431   C     0.76167   0.55025   0.23152   0.00000  Uiso   1.00
C432   C     0.72857   0.65195   0.30196   0.00000  Uiso   1.00
C433   C     0.75962   0.68077   0.31171   0.00000  Uiso   1.00
C434   C     0.73378   0.70829   0.27599   0.00000  Uiso   1.00
C435   C     0.70899   0.61042   0.36492   0.00000  Uiso   1.00
C436   C     0.72356   0.60434   0.42759   0.00000  Uiso   1.00
C437   C     0.68123   0.59690   0.44489   0.00000  Uiso   1.00
H438   H     0.60476   0.61565   0.22098   0.00000  Uiso   1.00
H439   H     0.62441   0.56872   0.15793   0.00000  Uiso   1.00
H440   H     0.60527   0.67715   0.18844   0.00000  Uiso   1.00
H441   H     0.56922   0.60073   0.30431   0.00000  Uiso   1.00
H442   H     0.67042   0.51728   0.10734   0.00000  Uiso   1.00
H443   H     0.63006   0.74591   0.17171   0.00000  Uiso   1.00
H444   H     0.55404   0.58475   0.41604   0.00000  Uiso   1.00
H445   H     0.79135   0.62001   0.37001   0.00000  Uiso   1.00
H446   H     0.82125   0.57333   0.31514   0.00000  Uiso   1.00
H447   H     0.80211   0.68176   0.34565   0.00000  Uiso   1.00
H448   H     0.76606   0.60533   0.46152   0.00000  Uiso   1.00
H449   H     0.83018   0.52101   0.23494   0.00000  Uiso   1.00
H450   H     0.28982   0.24965   0.29930   0.00000  Uiso   1.00
H451   H     0.71380   0.58849   0.54363   0.00000  Uiso   1.00
O452   O     0.76661   0.48836   0.13234   0.00000  Uiso   1.00
O453   O     0.21365   0.28832   0.21679   0.00000  Uiso   1.00
O454   O     0.61391   0.57688   0.53734   0.00000  Uiso   1.00
N455   N     0.70392   0.52456   0.14491   0.00000  Uiso   1.00
N456   N     0.66619   0.73831   0.20508   0.00000  Uiso   1.00
N457   N     0.59511   0.58765   0.43351   0.00000  Uiso   1.00
N458   N     0.78988   0.52657   0.21357   0.00000  Uiso   1.00
N459   N     0.25215   0.24032   0.27374   0.00000  Uiso   1.00
N460   N     0.68107   0.58966   0.50217   0.00000  Uiso   1.00
C461   C     0.30388   0.58937   0.04121   0.00000  Uiso   1.00
C462   C     0.32039   0.61929   0.01326   0.00000  Uiso   1.00
C463   C     0.36607   0.62113   0.99983   0.00000  Uiso   1.00
C464   C     0.37400   0.65069   0.97440   0.00000  Uiso   1.00
C465   C     0.40516   0.69309   0.93273   0.00000  Uiso   1.00
C466   C     0.24530   0.58058   0.99579   0.00000  Uiso   1.00
C467   C     0.22785   0.54987   0.96768   0.00000  Uiso   1.00
C468   C     0.17257   0.54685   0.92755   0.00000  Uiso   1.00
C469   C     0.08716   0.52914   0.85880   0.00000  Uiso   1.00
C470   C     0.29993   0.60197   0.10000   0.00000  Uiso   1.00
C471   C     0.32840   0.58923   0.15950   0.00000  Uiso   1.00
C472   C     0.31910   0.60421   0.20711   0.00000  Uiso   1.00
C473   C     0.31851   0.61970   0.30015   0.00000  Uiso   1.00
C474   C     0.23673   0.63862   0.01995   0.00000  Uiso   1.00
C475   C     0.28391   0.64604   0.00171   0.00000  Uiso   1.00
C476   C     0.29178   0.67562   0.97630   0.00000  Uiso   1.00
C477   C     0.33746   0.67749   0.96283   0.00000  Uiso   1.00
C478   C     0.20883   0.60733   0.98424   0.00000  Uiso   1.00
C479   C     0.15356   0.60436   0.94415   0.00000  Uiso   1.00
C480   C     0.13603   0.57365   0.91598   0.00000  Uiso   1.00
C481   C     0.26346   0.62872   0.08845   0.00000  Uiso   1.00
C482   C     0.25411   0.64372   0.13598   0.00000  Uiso   1.00
C483   C     0.28256   0.63101   0.19554   0.00000  Uiso   1.00
H484   H     0.33227   0.56854   0.05020   0.00000  Uiso   1.00
H485   H     0.39428   0.60042   0.00876   0.00000  Uiso   1.00
H486   H     0.25608   0.52917   0.97663   0.00000  Uiso   1.00
H487   H     0.35662   0.56853   0.16842   0.00000  Uiso   1.00
H488   H     0.44693   0.64755   0.95771   0.00000  Uiso   1.00
H489   H     0.15554   0.49732   0.88997   0.00000  Uiso   1.00
H490   H     0.36753   0.58031   0.29440   0.00000  Uiso   1.00
H491   H     0.20833   0.65945   0.01096   0.00000  Uiso   1.00
H492   H     0.26354   0.69632   0.96737   0.00000  Uiso   1.00
H493   H     0.12535   0.62507   0.93523   0.00000  Uiso   1.00
H494   H     0.22588   0.66442   0.12702   0.00000  Uiso   1.00
H495   H     0.34082   0.72539   0.92411   0.00000  Uiso   1.00
H496   H     0.04943   0.57516   0.85637   0.00000  Uiso   1.00
H497   H     0.26142   0.65815   0.26080   0.00000  Uiso   1.00
O498   O     0.93242   0.20908   0.91293   0.00000  Uiso   1.00
O499   O     0.05013   0.51198   0.82406   0.00000  Uiso   1.00
O500   O     0.32826   0.62086   0.35466   0.00000  Uiso   1.00
N501   N     0.41439   0.66082   0.95580   0.00000  Uiso   1.00
N502   N     0.14195   0.52036   0.89245   0.00000  Uiso   1.00
N503   N     0.34014   0.59794   0.27056   0.00000  Uiso   1.00
N504   N     0.35729   0.70270   0.93772   0.00000  Uiso   1.00
N505   N     0.08486   0.56224   0.87437   0.00000  Uiso   1.00
N506   N     0.28304   0.63982   0.25248   0.00000  Uiso   1.00
C507   C     0.57346   0.44330   0.18179   0.00000  Uiso   1.00
C508   C     0.52316   0.42463   0.13607   0.00000  Uiso   1.00
C509   C     0.49255   0.43304   0.07416   0.00000  Uiso   1.00
C510   C     0.44802   0.41281   0.04007   0.00000  Uiso   1.00
C511   C     0.37197   0.38802   0.96498   0.00000  Uiso   1.00
C512   C     0.61985   0.41781   0.20654   0.00000  Uiso   1.00
C513   C     0.67053   0.42050   0.20387   0.00000  Uiso   1.00
C514   C     0.70740   0.39452   0.22911   0.00000  Uiso   1.00
C515   C     0.78148   0.35916   0.26346   0.00000  Uiso   1.00
C516   C     0.56049   0.45256   0.23671   0.00000  Uiso   1.00
C517   C     0.56127   0.48446   0.25944   0.00000  Uiso   1.00
C518   C     0.54817   0.48774   0.31010   0.00000  Uiso   1.00
C519   C     0.53008   0.50633   0.39130   0.00000  Uiso   1.00
C520   C     0.54883   0.39239   0.23135   0.00000  Uiso   1.00
C521   C     0.50978   0.39698   0.16299   0.00000  Uiso   1.00
C522   C     0.46529   0.37672   0.12899   0.00000  Uiso   1.00
C523   C     0.43461   0.38511   0.06703   0.00000  Uiso   1.00
C524   C     0.60647   0.39016   0.23345   0.00000  Uiso   1.00
C525   C     0.64327   0.36417   0.25870   0.00000  Uiso   1.00
C526   C     0.69400   0.36682   0.25608   0.00000  Uiso   1.00
C527   C     0.54711   0.42491   0.26363   0.00000  Uiso   1.00
C528   C     0.53401   0.42814   0.31427   0.00000  Uiso   1.00
C529   C     0.53477   0.46004   0.33706   0.00000  Uiso   1.00
H530   H     0.58388   0.46482   0.16083   0.00000  Uiso   1.00
H531   H     0.50292   0.45444   0.05334   0.00000  Uiso   1.00
H532   H     0.68088   0.44190   0.18305   0.00000  Uiso   1.00
H533   H     0.57163   0.50585   0.23860   0.00000  Uiso   1.00
H534   H     0.40727   0.43074   0.94603   0.00000  Uiso   1.00
H535   H     0.78251   0.40429   0.21954   0.00000  Uiso   1.00
H536   H     0.55214   0.53915   0.33669   0.00000  Uiso   1.00
H537   H     0.53841   0.37086   0.25230   0.00000  Uiso   1.00
H538   H     0.45495   0.35532   0.14983   0.00000  Uiso   1.00
H539   H     0.63291   0.34278   0.27953   0.00000  Uiso   1.00
H540   H     0.52366   0.40673   0.33509   0.00000  Uiso   1.00
H541   H     0.36833   0.35029   0.02435   0.00000  Uiso   1.00
H542   H     0.74358   0.32384   0.29786   0.00000  Uiso   1.00
H543   H     0.51321   0.45870   0.41500   0.00000  Uiso   1.00
O544   O     0.33373   0.38198   0.91612   0.00000  Uiso   1.00
O545   O     0.82603   0.34729   0.27497   0.00000  Uiso   1.00
O546   O     0.52379   0.52422   0.42865   0.00000  Uiso   1.00
N547   N     0.40955   0.41394   0.97853   0.00000  Uiso   1.00
N548   N     0.76038   0.38921   0.23423   0.00000  Uiso   1.00
N549   N     0.54502   0.51529   0.34377   0.00000  Uiso   1.00
N550   N     0.38860   0.37065   0.02067   0.00000  Uiso   1.00
N551   N     0.73942   0.34592   0.27637   0.00000  Uiso   1.00
N552   N     0.52407   0.47200   0.38591   0.00000  Uiso   1.00
C553   C     0.27016   0.01632   0.51070   0.00000  Uiso   1.00
C554   C     0.23303   0.99448   0.52948   0.00000  Uiso   1.00
C555   C     0.17876   0.00131   0.51787   0.00000  Uiso   1.00
C556   C     0.15182   0.97821   0.53883   0.00000  Uiso   1.00
C557   C     0.09015   0.94870   0.56324   0.00000  Uiso   1.00
C558   C     0.32084   0.02373   0.57058   0.00000  Uiso   1.00
C559   C     0.84039   0.55513   0.59353   0.00000  Uiso   1.00
C560   C     0.88738   0.55665   0.64908   0.00000  Uiso   1.00
C561   C     0.96206   0.57254   0.73728   0.00000  Uiso   1.00
C562   C     0.28998   0.99432   0.47168   0.00000  Uiso   1.00
C563   C     0.28360   0.00102   0.41148   0.00000  Uiso   1.00
C564   C     0.30462   0.97778   0.38378   0.00000  Uiso   1.00
C565   C     0.33138   0.94802   0.31842   0.00000  Uiso   1.00
C566   C     0.81884   0.46316   0.56855   0.00000  Uiso   1.00
C567   C     0.25947   0.96561   0.56090   0.00000  Uiso   1.00
C568   C     0.23261   0.94249   0.58188   0.00000  Uiso   1.00
C569   C     0.17831   0.94928   0.57030   0.00000  Uiso   1.00
C570   C     0.34728   0.99485   0.60200   0.00000  Uiso   1.00
C571   C     0.39425   0.99632   0.65754   0.00000  Uiso   1.00
C572   C     0.41387   0.02772   0.68056   0.00000  Uiso   1.00
C573   C     0.81642   0.46545   0.50311   0.00000  Uiso   1.00
C574   C     0.33746   0.94220   0.47549   0.00000  Uiso   1.00
C575   C     0.33111   0.94885   0.41526   0.00000  Uiso   1.00
H576   H     0.74958   0.53880   0.48623   0.00000  Uiso   1.00
H577   H     0.15831   0.02366   0.49356   0.00000  Uiso   1.00
H578   H     0.81993   0.57748   0.56920   0.00000  Uiso   1.00
H579   H     0.26314   0.02337   0.38718   0.00000  Uiso   1.00
H580   H     0.06879   0.99414   0.51555   0.00000  Uiso   1.00
H581   H     0.90957   0.60762   0.67504   0.00000  Uiso   1.00
H582   H     0.28983   0.99351   0.29122   0.00000  Uiso   1.00
H583   H     0.83943   0.44068   0.59301   0.00000  Uiso   1.00
H584   H     0.25309   0.92014   0.60619   0.00000  Uiso   1.00
H585   H     0.41470   0.97396   0.68184   0.00000  Uiso   1.00
H586   H     0.85792   0.41985   0.49982   0.00000  Uiso   1.00
H587   H     0.14571   0.91012   0.60698   0.00000  Uiso   1.00
H588   H     0.48650   0.02360   0.76646   0.00000  Uiso   1.00
H589   H     0.36675   0.90950   0.38264   0.00000  Uiso   1.00
O590   O     0.04884   0.94040   0.56803   0.00000  Uiso   1.00
O591   O     0.99594   0.58928   0.77725   0.00000  Uiso   1.00
O592   O     0.33883   0.93958   0.27369   0.00000  Uiso   1.00
N593   N     0.09874   0.97718   0.53525   0.00000  Uiso   1.00
N594   N     0.91735   0.58328   0.68436   0.00000  Uiso   1.00
N595   N     0.30541   0.97660   0.32553   0.00000  Uiso   1.00
N596   N     0.14013   0.93197   0.58444   0.00000  Uiso   1.00
N597   N     0.45874   0.03807   0.73356   0.00000  Uiso   1.00
N598   N     0.34680   0.93140   0.37472   0.00000  Uiso   1.00
C599   C     0.47516   0.67127   0.34411   0.00000  Uiso   1.00
C600   C     0.53069   0.68137   0.39506   0.00000  Uiso   1.00
C601   C     0.05969   0.16408   0.44992   0.00000  Uiso   1.00
C602   C     0.60975   0.67742   0.49056   0.00000  Uiso   1.00
C603   C     0.69287   0.68860   0.57179   0.00000  Uiso   1.00
C604   C     0.43684   0.70076   0.33557   0.00000  Uiso   1.00
C605   C     0.88693   0.19979   0.34041   0.00000  Uiso   1.00
C606   C     0.85798   0.22945   0.33098   0.00000  Uiso   1.00
C607   C     0.79539   0.27075   0.31981   0.00000  Uiso   1.00
C608   C     0.48353   0.66897   0.28431   0.00000  Uiso   1.00
C609   C     0.47286   0.64127   0.24603   0.00000  Uiso   1.00
C610   C     0.48322   0.64417   0.19342   0.00000  Uiso   1.00
C611   C     0.49311   0.63611   0.10265   0.00000  Uiso   1.00
C612   C     0.51249   0.72568   0.31874   0.00000  Uiso   1.00
C613   C     0.55096   0.71092   0.38128   0.00000  Uiso   1.00
C614   C     0.60099   0.72428   0.42185   0.00000  Uiso   1.00
C615   C     0.63007   0.70702   0.47676   0.00000  Uiso   1.00
C616   C     0.45711   0.73032   0.32180   0.00000  Uiso   1.00
C617   C     0.42823   0.75998   0.31235   0.00000  Uiso   1.00
C618   C     0.37830   0.75906   0.31717   0.00000  Uiso   1.00
C619   C     0.50381   0.69853   0.27053   0.00000  Uiso   1.00
C620   C     0.51417   0.70147   0.21796   0.00000  Uiso   1.00
C621   C     0.50353   0.67378   0.17961   0.00000  Uiso   1.00
H622   H     0.95937   0.14827   0.35483   0.00000  Uiso   1.00
H623   H     0.04398   0.14122   0.46056   0.00000  Uiso   1.00
H624   H     0.87124   0.17692   0.35107   0.00000  Uiso   1.00
H625   H     0.45717   0.61841   0.25670   0.00000  Uiso   1.00
H626   H     0.14672   0.14644   0.57172   0.00000  Uiso   1.00
H627   H     0.78249   0.22171   0.34083   0.00000  Uiso   1.00
H628   H     0.46368   0.59834   0.14183   0.00000  Uiso   1.00
H629   H     0.52828   0.74869   0.30801   0.00000  Uiso   1.00
H630   H     0.61668   0.74715   0.41118   0.00000  Uiso   1.00
H631   H     0.44394   0.78285   0.30168   0.00000  Uiso   1.00
H632   H     0.52987   0.72434   0.20732   0.00000  Uiso   1.00
H633   H     0.70572   0.73242   0.53164   0.00000  Uiso   1.00
H634   H     0.34149   0.80769   0.30074   0.00000  Uiso   1.00
H635   H     0.52268   0.68432   0.10175   0.00000  Uiso   1.00
O636   O     0.73312   0.68661   0.62040   0.00000  Uiso   1.00
O637   O     0.75526   0.28536   0.31746   0.00000  Uiso   1.00
O638   O     0.99298   0.12350   0.05639   0.00000  Uiso   1.00
N639   N     0.14848   0.16688   0.54813   0.00000  Uiso   1.00
N640   N     0.80795   0.23726   0.33226   0.00000  Uiso   1.00
N641   N     0.47733   0.62192   0.14621   0.00000  Uiso   1.00
N642   N     0.68023   0.71315   0.52656   0.00000  Uiso   1.00
N643   N     0.33970   0.78352   0.31069   0.00000  Uiso   1.00
N644   N     0.50908   0.66818   0.12464   0.00000  Uiso   1.00
C645   C     0.87482   0.95799   0.25381   0.00000  Uiso   1.00
C646   C     0.83591   0.98049   0.26848   0.00000  Uiso   1.00
C647   C     0.85152   0.00426   0.31525   0.00000  Uiso   1.00
C648   C     0.80970   0.02229   0.32114   0.00000  Uiso   1.00
C649   C     0.75771   0.05806   0.34993   0.00000  Uiso   1.00
C650   C     0.85657   0.92246   0.25766   0.00000  Uiso   1.00
C651   C     0.88955   0.89744   0.29533   0.00000  Uiso   1.00
C652   C     0.86512   0.86662   0.29211   0.00000  Uiso   1.00
C653   C     0.84522   0.81230   0.30408   0.00000  Uiso   1.00
C654   C     0.86207   0.96398   0.18549   0.00000  Uiso   1.00
C655   C     0.89968   0.97386   0.16247   0.00000  Uiso   1.00
C656   C     0.37989   0.47799   0.09848   0.00000  Uiso   1.00
C657   C     0.86853   0.98813   0.99839   0.00000  Uiso   1.00
C658   C     0.77281   0.94772   0.18111   0.00000  Uiso   1.00
C659   C     0.78050   0.97491   0.22898   0.00000  Uiso   1.00
C660   C     0.73865   0.99291   0.23480   0.00000  Uiso   1.00
C661   C     0.75419   0.01671   0.28158   0.00000  Uiso   1.00
C662   C     0.80116   0.91688   0.21817   0.00000  Uiso   1.00
C663   C     0.77668   0.88609   0.21489   0.00000  Uiso   1.00
C664   C     0.80961   0.86103   0.25255   0.00000  Uiso   1.00
C665   C     0.80666   0.95840   0.14599   0.00000  Uiso   1.00
C666   C     0.78681   0.96251   0.08203   0.00000  Uiso   1.00
C667   C     0.32438   0.47240   0.05892   0.00000  Uiso   1.00
H668   H     0.91796   0.96232   0.28456   0.00000  Uiso   1.00
H669   H     0.89440   0.00857   0.34580   0.00000  Uiso   1.00
H670   H     0.93243   0.90176   0.32588   0.00000  Uiso   1.00
H671   H     0.94255   0.97818   0.19304   0.00000  Uiso   1.00
H672   H     0.84385   0.05737   0.39630   0.00000  Uiso   1.00
H673   H     0.92403   0.83217   0.35429   0.00000  Uiso   1.00
H674   H     0.94539   0.99329   0.07417   0.00000  Uiso   1.00
H675   H     0.72967   0.94338   0.15036   0.00000  Uiso   1.00
H676   H     0.69578   0.98859   0.20424   0.00000  Uiso   1.00
H677   H     0.73380   0.88178   0.18432   0.00000  Uiso   1.00
H678   H     0.74393   0.95819   0.05148   0.00000  Uiso   1.00
H679   H     0.68264   0.04115   0.28140   0.00000  Uiso   1.00
H680   H     0.76282   0.81595   0.23939   0.00000  Uiso   1.00
H681   H     0.78418   0.97708   0.95927   0.00000  Uiso   1.00
O682   O     0.74434   0.07933   0.37673   0.00000  Uiso   1.00
O683   O     0.84955   0.78388   0.32160   0.00000  Uiso   1.00
O684   O     0.87756   0.99527   0.95409   0.00000  Uiso   1.00
N685   N     0.81056   0.04735   0.36186   0.00000  Uiso   1.00
N686   N     0.88552   0.83680   0.32258   0.00000  Uiso   1.00
N687   N     0.90549   0.98744   0.06069   0.00000  Uiso   1.00
N688   N     0.72381   0.03863   0.30003   0.00000  Uiso   1.00
N689   N     0.79878   0.82808   0.26076   0.00000  Uiso   1.00
N690   N     0.81875   0.97871   0.99887   0.00000  Uiso   1.00
C691   C     0.85250   0.11665   0.74487   0.00000  Uiso   1.00
C692   C     0.81594   0.09175   0.75846   0.00000  Uiso   1.00
C693   C     0.83309   0.06971   0.80814   0.00000  Uiso   1.00
C694   C     0.79334   0.04897   0.81242   0.00000  Uiso   1.00
C695   C     0.74493   0.01014   0.84021   0.00000  Uiso   1.00
C696   C     0.82634   0.15067   0.74189   0.00000  Uiso   1.00
C697   C     0.85223   0.17815   0.77763   0.00000  Uiso   1.00
C698   C     0.82123   0.20701   0.76794   0.00000  Uiso   1.00
C699   C     0.28897   0.75964   0.76997   0.00000  Uiso   1.00
C700   C     0.84593   0.10914   0.67894   0.00000  Uiso   1.00
C701   C     0.88829   0.10172   0.66174   0.00000  Uiso   1.00
C702   C     0.87378   0.09562   0.59905   0.00000  Uiso   1.00
C703   C     0.87194   0.08378   0.50333   0.00000  Uiso   1.00
C704   C     0.75140   0.11901   0.66413   0.00000  Uiso   1.00
C705   C     0.76103   0.09304   0.71461   0.00000  Uiso   1.00
C706   C     0.72124   0.07233   0.71881   0.00000  Uiso   1.00
C707   C     0.73833   0.05025   0.76848   0.00000  Uiso   1.00
C708   C     0.77143   0.15195   0.69804   0.00000  Uiso   1.00
C709   C     0.74038   0.18077   0.68829   0.00000  Uiso   1.00
C710   C     0.76622   0.20829   0.72401   0.00000  Uiso   1.00
C711   C     0.79101   0.11042   0.63508   0.00000  Uiso   1.00
C712   C     0.77644   0.10434   0.57241   0.00000  Uiso   1.00
C713   C     0.81877   0.09690   0.55511   0.00000  Uiso   1.00
H714   H     0.89524   0.11565   0.77902   0.00000  Uiso   1.00
H715   H     0.87559   0.06872   0.84207   0.00000  Uiso   1.00
H716   H     0.89473   0.17715   0.81156   0.00000  Uiso   1.00
H717   H     0.93078   0.10073   0.69569   0.00000  Uiso   1.00
H718   H     0.82958   0.01728   0.89266   0.00000  Uiso   1.00
H719   H     0.86994   0.24591   0.82829   0.00000  Uiso   1.00
H720   H     0.94596   0.08475   0.58396   0.00000  Uiso   1.00
H721   H     0.70865   0.12001   0.62999   0.00000  Uiso   1.00
H722   H     0.67875   0.07333   0.68486   0.00000  Uiso   1.00
H723   H     0.69789   0.18176   0.65435   0.00000  Uiso   1.00
H724   H     0.73394   0.10533   0.53848   0.00000  Uiso   1.00
H725   H     0.66982   0.02101   0.76506   0.00000  Uiso   1.00
H726   H     0.21018   0.74965   0.70070   0.00000  Uiso   1.00
H727   H     0.78620   0.08849   0.45637   0.00000  Uiso   1.00
O728   O     0.73339   0.98836   0.86766   0.00000  Uiso   1.00
O729   O     0.28635   0.78832   0.78321   0.00000  Uiso   1.00
O730   O     0.88609   0.07688   0.46266   0.00000  Uiso   1.00
N731   N     0.79608   0.02456   0.85509   0.00000  Uiso   1.00
N732   N     0.83381   0.23831   0.79492   0.00000  Uiso   1.00
N733   N     0.90489   0.08765   0.56649   0.00000  Uiso   1.00
N734   N     0.71012   0.02657   0.78643   0.00000  Uiso   1.00
N735   N     0.24785   0.74032   0.72626   0.00000  Uiso   1.00
N736   N     0.81893   0.08966   0.49783   0.00000  Uiso   1.00
C737   C     0.19612   0.08937   0.95879   0.00000  Uiso   1.00
C738   C     0.17961   0.11929   0.98674   0.00000  Uiso   1.00
C739   C     0.13393   0.12113   0.00017   0.00000  Uiso   1.00
C740   C     0.12600   0.15069   0.02560   0.00000  Uiso   1.00
C741   C     0.09484   0.19309   0.06727   0.00000  Uiso   1.00
C742   C     0.25470   0.08058   0.00421   0.00000  Uiso   1.00
C743   C     0.27215   0.04987   0.03232   0.00000  Uiso   1.00
C744   C     0.32743   0.04685   0.07245   0.00000  Uiso   1.00
C745   C     0.41284   0.02914   0.14120   0.00000  Uiso   1.00
C746   C     0.20007   0.10197   0.90000   0.00000  Uiso   1.00
C747   C     0.17160   0.08923   0.84050   0.00000  Uiso   1.00
C748   C     0.18090   0.10421   0.79289   0.00000  Uiso   1.00
C749   C     0.18149   0.11970   0.69985   0.00000  Uiso   1.00
C750   C     0.26327   0.13862   0.98005   0.00000  Uiso   1.00
C751   C     0.21609   0.14604   0.99829   0.00000  Uiso   1.00
C752   C     0.20822   0.17562   0.02370   0.00000  Uiso   1.00
C753   C     0.16254   0.17749   0.03717   0.00000  Uiso   1.00
C754   C     0.29117   0.10733   0.01576   0.00000  Uiso   1.00
C755   C     0.34644   0.10436   0.05585   0.00000  Uiso   1.00
C756   C     0.36397   0.07365   0.08402   0.00000  Uiso   1.00
C757   C     0.23654   0.12872   0.91155   0.00000  Uiso   1.00
C758   C     0.24589   0.14372   0.86402   0.00000  Uiso   1.00
C759   C     0.21744   0.13101   0.80446   0.00000  Uiso   1.00
H760   H     0.16773   0.06854   0.94980   0.00000  Uiso   1.00
H761   H     0.10572   0.10042   0.99124   0.00000  Uiso   1.00
H762   H     0.24392   0.02917   0.02337   0.00000  Uiso   1.00
H763   H     0.14338   0.06853   0.83158   0.00000  Uiso   1.00
H764   H     0.05307   0.14755   0.04229   0.00000  Uiso   1.00
H765   H     0.34446   0.99732   0.11003   0.00000  Uiso   1.00
H766   H     0.13247   0.08031   0.70560   0.00000  Uiso   1.00
H767   H     0.29167   0.15945   0.98904   0.00000  Uiso   1.00
H768   H     0.23646   0.19632   0.03263   0.00000  Uiso   1.00
H769   H     0.37465   0.12507   0.06477   0.00000  Uiso   1.00
H770   H     0.27412   0.16442   0.87298   0.00000  Uiso   1.00
H771   H     0.15918   0.22539   0.07589   0.00000  Uiso   1.00
H772   H     0.45057   0.07516   0.14363   0.00000  Uiso   1.00
H773   H     0.23858   0.15815   0.73920   0.00000  Uiso   1.00
O774   O     0.56758   0.70908   0.08707   0.00000  Uiso   1.00
O775   O     0.44987   0.01198   0.17594   0.00000  Uiso   1.00
O776   O     0.17174   0.12086   0.64534   0.00000  Uiso   1.00
N777   N     0.08561   0.16082   0.04420   0.00000  Uiso   1.00
N778   N     0.35805   0.02036   0.10755   0.00000  Uiso   1.00
N779   N     0.15986   0.09794   0.72944   0.00000  Uiso   1.00
N780   N     0.14271   0.20270   0.06228   0.00000  Uiso   1.00
N781   N     0.41514   0.06224   0.12563   0.00000  Uiso   1.00
N782   N     0.21696   0.13982   0.74752   0.00000  Uiso   1.00
C783   C     0.92654   0.94330   0.81821   0.00000  Uiso   1.00
C784   C     0.97684   0.92463   0.86393   0.00000  Uiso   1.00
C785   C     0.00745   0.93304   0.92584   0.00000  Uiso   1.00
C786   C     0.05198   0.91281   0.95993   0.00000  Uiso   1.00
C787   C     0.12803   0.88802   0.03502   0.00000  Uiso   1.00
C788   C     0.88015   0.91781   0.79346   0.00000  Uiso   1.00
C789   C     0.82947   0.92050   0.79613   0.00000  Uiso   1.00
C790   C     0.79260   0.89452   0.77089   0.00000  Uiso   1.00
C791   C     0.71852   0.85916   0.73654   0.00000  Uiso   1.00
C792   C     0.93951   0.95256   0.76329   0.00000  Uiso   1.00
C793   C     0.93873   0.98446   0.74056   0.00000  Uiso   1.00
C794   C     0.95183   0.98774   0.68990   0.00000  Uiso   1.00
C795   C     0.96992   0.00633   0.60870   0.00000  Uiso   1.00
C796   C     0.95117   0.89239   0.76865   0.00000  Uiso   1.00
C797   C     0.99022   0.89698   0.83701   0.00000  Uiso   1.00
C798   C     0.03471   0.87672   0.87101   0.00000  Uiso   1.00
C799   C     0.06539   0.88511   0.93297   0.00000  Uiso   1.00
C800   C     0.89353   0.89016   0.76655   0.00000  Uiso   1.00
C801   C     0.85673   0.86417   0.74130   0.00000  Uiso   1.00
C802   C     0.80600   0.86682   0.74392   0.00000  Uiso   1.00
C803   C     0.95289   0.92491   0.73637   0.00000  Uiso   1.00
C804   C     0.96599   0.92814   0.68573   0.00000  Uiso   1.00
C805   C     0.96523   0.96004   0.66294   0.00000  Uiso   1.00
H806   H     0.91612   0.96482   0.83917   0.00000  Uiso   1.00
H807   H     0.99708   0.95444   0.94666   0.00000  Uiso   1.00
H808   H     0.81912   0.94190   0.81695   0.00000  Uiso   1.00
H809   H     0.92837   0.00585   0.76140   0.00000  Uiso   1.00
H810   H     0.09273   0.93074   0.05397   0.00000  Uiso   1.00
H811   H     0.71749   0.90429   0.78046   0.00000  Uiso   1.00
H812   H     0.94786   0.03915   0.66331   0.00000  Uiso   1.00
H813   H     0.96159   0.87086   0.74770   0.00000  Uiso   1.00
H814   H     0.04505   0.85532   0.85017   0.00000  Uiso   1.00
H815   H     0.86709   0.84278   0.72047   0.00000  Uiso   1.00
H816   H     0.97634   0.90673   0.66491   0.00000  Uiso   1.00
H817   H     0.13167   0.85029   0.97565   0.00000  Uiso   1.00
H818   H     0.75642   0.82384   0.70214   0.00000  Uiso   1.00
H819   H     0.98679   0.95870   0.58500   0.00000  Uiso   1.00
O820   O     0.16627   0.88198   0.08388   0.00000  Uiso   1.00
O821   O     0.67397   0.84729   0.72503   0.00000  Uiso   1.00
O822   O     0.97621   0.02422   0.57135   0.00000  Uiso   1.00
N823   N     0.09045   0.91394   0.02147   0.00000  Uiso   1.00
N824   N     0.73962   0.88921   0.76577   0.00000  Uiso   1.00
N825   N     0.95498   0.01529   0.65623   0.00000  Uiso   1.00
N826   N     0.11140   0.87065   0.97933   0.00000  Uiso   1.00
N827   N     0.76058   0.84592   0.72363   0.00000  Uiso   1.00
N828   N     0.97593   0.97200   0.61409   0.00000  Uiso   1.00
C829   C     0.77016   0.51632   0.51070   0.00000  Uiso   1.00
C830   C     0.73303   0.49448   0.52948   0.00000  Uiso   1.00
C831   C     0.67876   0.50131   0.51787   0.00000  Uiso   1.00
C832   C     0.65182   0.47821   0.53883   0.00000  Uiso   1.00
C833   C     0.59015   0.44870   0.56324   0.00000  Uiso   1.00
C834   C     0.82084   0.52373   0.57058   0.00000  Uiso   1.00
C835   C     0.34039   0.05513   0.59353   0.00000  Uiso   1.00
C836   C     0.38738   0.05665   0.64908   0.00000  Uiso   1.00
C837   C     0.46206   0.07254   0.73728   0.00000  Uiso   1.00
C838   C     0.78998   0.49432   0.47168   0.00000  Uiso   1.00
C839   C     0.78360   0.50102   0.41148   0.00000  Uiso   1.00
C840   C     0.80462   0.47778   0.38378   0.00000  Uiso   1.00
C841   C     0.83138   0.44802   0.31842   0.00000  Uiso   1.00
C842   C     0.31884   0.96316   0.56855   0.00000  Uiso   1.00
C843   C     0.75947   0.46561   0.56090   0.00000  Uiso   1.00
C844   C     0.73261   0.44249   0.58188   0.00000  Uiso   1.00
C845   C     0.67831   0.44928   0.57030   0.00000  Uiso   1.00
C846   C     0.84728   0.49485   0.60200   0.00000  Uiso   1.00
C847   C     0.89425   0.49632   0.65754   0.00000  Uiso   1.00
C848   C     0.91387   0.52772   0.68056   0.00000  Uiso   1.00
C849   C     0.31642   0.96545   0.50311   0.00000  Uiso   1.00
C850   C     0.83746   0.44220   0.47549   0.00000  Uiso   1.00
C851   C     0.83111   0.44885   0.41526   0.00000  Uiso   1.00
H852   H     0.24958   0.03880   0.48623   0.00000  Uiso   1.00
H853   H     0.65831   0.52366   0.49356   0.00000  Uiso   1.00
H854   H     0.31993   0.07748   0.56920   0.00000  Uiso   1.00
H855   H     0.76314   0.52337   0.38718   0.00000  Uiso   1.00
H856   H     0.56879   0.49414   0.51555   0.00000  Uiso   1.00
H857   H     0.40957   0.10762   0.67504   0.00000  Uiso   1.00
H858   H     0.78983   0.49351   0.29122   0.00000  Uiso   1.00
H859   H     0.33943   0.94068   0.59301   0.00000  Uiso   1.00
H860   H     0.75309   0.42014   0.60619   0.00000  Uiso   1.00
H861   H     0.91470   0.47396   0.68184   0.00000  Uiso   1.00
H862   H     0.35792   0.91985   0.49982   0.00000  Uiso   1.00
H863   H     0.64571   0.41012   0.60698   0.00000  Uiso   1.00
H864   H     0.98650   0.52360   0.76646   0.00000  Uiso   1.00
H865   H     0.86675   0.40950   0.38264   0.00000  Uiso   1.00
O866   O     0.54884   0.44040   0.56803   0.00000  Uiso   1.00
O867   O     0.49594   0.08928   0.77725   0.00000  Uiso   1.00
O868   O     0.83883   0.43958   0.27369   0.00000  Uiso   1.00
N869   N     0.59874   0.47718   0.53525   0.00000  Uiso   1.00
N870   N     0.41735   0.08328   0.68436   0.00000  Uiso   1.00
N871   N     0.80541   0.47660   0.32553   0.00000  Uiso   1.00
N872   N     0.64013   0.43197   0.58444   0.00000  Uiso   1.00
N873   N     0.95874   0.53807   0.73356   0.00000  Uiso   1.00
N874   N     0.84680   0.43140   0.37472   0.00000  Uiso   1.00
C875   C     0.97516   0.17127   0.34411   0.00000  Uiso   1.00
C876   C     0.03069   0.18137   0.39506   0.00000  Uiso   1.00
C877   C     0.55969   0.66408   0.44992   0.00000  Uiso   1.00
C878   C     0.10975   0.17742   0.49056   0.00000  Uiso   1.00
C879   C     0.19287   0.18860   0.57179   0.00000  Uiso   1.00
C880   C     0.93684   0.20076   0.33557   0.00000  Uiso   1.00
C881   C     0.38693   0.69979   0.34041   0.00000  Uiso   1.00
C882   C     0.35798   0.72945   0.33098   0.00000  Uiso   1.00
C883   C     0.29539   0.77075   0.31981   0.00000  Uiso   1.00
C884   C     0.98353   0.16897   0.28431   0.00000  Uiso   1.00
C885   C     0.97286   0.14127   0.24603   0.00000  Uiso   1.00
C886   C     0.98322   0.14417   0.19342   0.00000  Uiso   1.00
C887   C     0.99311   0.13611   0.10265   0.00000  Uiso   1.00
C888   C     0.01249   0.22568   0.31874   0.00000  Uiso   1.00
C889   C     0.05096   0.21092   0.38128   0.00000  Uiso   1.00
C890   C     0.10099   0.22428   0.42185   0.00000  Uiso   1.00
C891   C     0.13007   0.20702   0.47676   0.00000  Uiso   1.00
C892   C     0.95711   0.23032   0.32180   0.00000  Uiso   1.00
C893   C     0.92823   0.25998   0.31235   0.00000  Uiso   1.00
C894   C     0.87830   0.25906   0.31717   0.00000  Uiso   1.00
C895   C     0.00381   0.19853   0.27053   0.00000  Uiso   1.00
C896   C     0.01417   0.20147   0.21796   0.00000  Uiso   1.00
C897   C     0.00353   0.17378   0.17961   0.00000  Uiso   1.00
H898   H     0.45937   0.64827   0.35483   0.00000  Uiso   1.00
H899   H     0.54398   0.64122   0.46056   0.00000  Uiso   1.00
H900   H     0.37124   0.67692   0.35107   0.00000  Uiso   1.00
H901   H     0.95717   0.11841   0.25670   0.00000  Uiso   1.00
H902   H     0.64672   0.64644   0.57172   0.00000  Uiso   1.00
H903   H     0.28249   0.72171   0.34083   0.00000  Uiso   1.00
H904   H     0.96368   0.09834   0.14183   0.00000  Uiso   1.00
H905   H     0.02828   0.24869   0.30801   0.00000  Uiso   1.00
H906   H     0.11668   0.24715   0.41118   0.00000  Uiso   1.00
H907   H     0.94394   0.28285   0.30168   0.00000  Uiso   1.00
H908   H     0.02987   0.22434   0.20732   0.00000  Uiso   1.00
H909   H     0.20572   0.23242   0.53164   0.00000  Uiso   1.00
H910   H     0.84149   0.30769   0.30074   0.00000  Uiso   1.00
H911   H     0.02268   0.18432   0.10175   0.00000  Uiso   1.00
O912   O     0.23312   0.18661   0.62040   0.00000  Uiso   1.00
O913   O     0.25526   0.78536   0.31746   0.00000  Uiso   1.00
O914   O     0.49298   0.62350   0.05639   0.00000  Uiso   1.00
N915   N     0.64848   0.66688   0.54813   0.00000  Uiso   1.00
N916   N     0.30795   0.73726   0.33226   0.00000  Uiso   1.00
N917   N     0.97733   0.12192   0.14621   0.00000  Uiso   1.00
N918   N     0.18023   0.21315   0.52656   0.00000  Uiso   1.00
N919   N     0.83970   0.28352   0.31069   0.00000  Uiso   1.00
N920   N     0.00908   0.16818   0.12464   0.00000  Uiso   1.00
C921   C     0.37482   0.45799   0.25381   0.00000  Uiso   1.00
C922   C     0.33591   0.48049   0.26848   0.00000  Uiso   1.00
C923   C     0.35152   0.50426   0.31525   0.00000  Uiso   1.00
C924   C     0.30970   0.52229   0.32114   0.00000  Uiso   1.00
C925   C     0.25771   0.55806   0.34993   0.00000  Uiso   1.00
C926   C     0.35657   0.42246   0.25766   0.00000  Uiso   1.00
C927   C     0.38955   0.39744   0.29533   0.00000  Uiso   1.00
C928   C     0.36512   0.36662   0.29211   0.00000  Uiso   1.00
C929   C     0.34522   0.31230   0.30408   0.00000  Uiso   1.00
C930   C     0.36207   0.46398   0.18549   0.00000  Uiso   1.00
C931   C     0.39968   0.47386   0.16247   0.00000  Uiso   1.00
C932   C     0.87989   0.97799   0.09848   0.00000  Uiso   1.00
C933   C     0.36853   0.48813   0.99839   0.00000  Uiso   1.00
C934   C     0.27281   0.44772   0.18111   0.00000  Uiso   1.00
C935   C     0.28050   0.47491   0.22898   0.00000  Uiso   1.00
C936   C     0.23865   0.49291   0.23480   0.00000  Uiso   1.00
C937   C     0.25419   0.51671   0.28158   0.00000  Uiso   1.00
C938   C     0.30116   0.41688   0.21817   0.00000  Uiso   1.00
C939   C     0.27668   0.38609   0.21489   0.00000  Uiso   1.00
C940   C     0.30961   0.36103   0.25255   0.00000  Uiso   1.00
C941   C     0.30666   0.45840   0.14599   0.00000  Uiso   1.00
C942   C     0.28681   0.46251   0.08203   0.00000  Uiso   1.00
C943   C     0.82438   0.97240   0.05892   0.00000  Uiso   1.00
H944   H     0.41796   0.46232   0.28456   0.00000  Uiso   1.00
H945   H     0.39440   0.50857   0.34580   0.00000  Uiso   1.00
H946   H     0.43243   0.40176   0.32588   0.00000  Uiso   1.00
H947   H     0.44255   0.47818   0.19304   0.00000  Uiso   1.00
H948   H     0.34385   0.55737   0.39630   0.00000  Uiso   1.00
H949   H     0.42403   0.33217   0.35429   0.00000  Uiso   1.00
H950   H     0.44539   0.49329   0.07417   0.00000  Uiso   1.00
H951   H     0.22967   0.44338   0.15036   0.00000  Uiso   1.00
H952   H     0.19578   0.48859   0.20424   0.00000  Uiso   1.00
H953   H     0.23380   0.38178   0.18432   0.00000  Uiso   1.00
H954   H     0.24393   0.45819   0.05148   0.00000  Uiso   1.00
H955   H     0.18264   0.54115   0.28140   0.00000  Uiso   1.00
H956   H     0.26282   0.31595   0.23939   0.00000  Uiso   1.00
H957   H     0.28418   0.47708   0.95927   0.00000  Uiso   1.00
O958   O     0.24434   0.57933   0.37673   0.00000  Uiso   1.00
O959   O     0.34955   0.28388   0.32160   0.00000  Uiso   1.00
O960   O     0.37756   0.49527   0.95409   0.00000  Uiso   1.00
N961   N     0.31056   0.54735   0.36186   0.00000  Uiso   1.00
N962   N     0.38552   0.33680   0.32258   0.00000  Uiso   1.00
N963   N     0.40549   0.48744   0.06069   0.00000  Uiso   1.00
N964   N     0.22381   0.53863   0.30003   0.00000  Uiso   1.00
N965   N     0.29878   0.32808   0.26076   0.00000  Uiso   1.00
N966   N     0.31875   0.47871   0.99887   0.00000  Uiso   1.00
C967   C     0.35250   0.61665   0.74487   0.00000  Uiso   1.00
C968   C     0.31594   0.59175   0.75846   0.00000  Uiso   1.00
C969   C     0.33309   0.56971   0.80814   0.00000  Uiso   1.00
C970   C     0.29334   0.54897   0.81242   0.00000  Uiso   1.00
C971   C     0.24493   0.51014   0.84021   0.00000  Uiso   1.00
C972   C     0.32634   0.65067   0.74189   0.00000  Uiso   1.00
C973   C     0.35223   0.67815   0.77763   0.00000  Uiso   1.00
C974   C     0.32123   0.70701   0.76794   0.00000  Uiso   1.00
C975   C     0.78897   0.25964   0.76997   0.00000  Uiso   1.00
C976   C     0.34593   0.60914   0.67894   0.00000  Uiso   1.00
C977   C     0.38829   0.60172   0.66174   0.00000  Uiso   1.00
C978   C     0.37378   0.59562   0.59905   0.00000  Uiso   1.00
C979   C     0.37194   0.58378   0.50333   0.00000  Uiso   1.00
C980   C     0.25140   0.61901   0.66413   0.00000  Uiso   1.00
C981   C     0.26103   0.59304   0.71461   0.00000  Uiso   1.00
C982   C     0.22124   0.57233   0.71881   0.00000  Uiso   1.00
C983   C     0.23833   0.55025   0.76848   0.00000  Uiso   1.00
C984   C     0.27143   0.65195   0.69804   0.00000  Uiso   1.00
C985   C     0.24038   0.68077   0.68829   0.00000  Uiso   1.00
C986   C     0.26622   0.70829   0.72401   0.00000  Uiso   1.00
C987   C     0.29101   0.61042   0.63508   0.00000  Uiso   1.00
C988   C     0.27644   0.60434   0.57241   0.00000  Uiso   1.00
C989   C     0.31877   0.59690   0.55511   0.00000  Uiso   1.00
H990   H     0.39524   0.61565   0.77902   0.00000  Uiso   1.00
H991   H     0.37559   0.56872   0.84207   0.00000  Uiso   1.00
H992   H     0.39473   0.67715   0.81156   0.00000  Uiso   1.00
H993   H     0.43078   0.60073   0.69569   0.00000  Uiso   1.00
H994   H     0.32958   0.51728   0.89266   0.00000  Uiso   1.00
H995   H     0.36994   0.74591   0.82829   0.00000  Uiso   1.00
H996   H     0.44596   0.58475   0.58396   0.00000  Uiso   1.00
H997   H     0.20865   0.62001   0.62999   0.00000  Uiso   1.00
H998   H     0.17875   0.57333   0.68486   0.00000  Uiso   1.00
H999   H     0.19789   0.68176   0.65435   0.00000  Uiso   1.00
H1000  H     0.23394   0.60533   0.53848   0.00000  Uiso   1.00
H1001  H     0.16982   0.52101   0.76506   0.00000  Uiso   1.00
H1002  H     0.71018   0.24965   0.70070   0.00000  Uiso   1.00
H1003  H     0.28620   0.58849   0.45637   0.00000  Uiso   1.00
O1004  O     0.23339   0.48836   0.86766   0.00000  Uiso   1.00
O1005  O     0.78635   0.28832   0.78321   0.00000  Uiso   1.00
O1006  O     0.38609   0.57688   0.46266   0.00000  Uiso   1.00
N1007  N     0.29608   0.52456   0.85509   0.00000  Uiso   1.00
N1008  N     0.33381   0.73831   0.79492   0.00000  Uiso   1.00
N1009  N     0.40489   0.58765   0.56649   0.00000  Uiso   1.00
N1010  N     0.21012   0.52657   0.78643   0.00000  Uiso   1.00
N1011  N     0.74785   0.24032   0.72626   0.00000  Uiso   1.00
N1012  N     0.31893   0.58966   0.49783   0.00000  Uiso   1.00
C1013  C     0.69612   0.58937   0.95879   0.00000  Uiso   1.00
C1014  C     0.67961   0.61929   0.98674   0.00000  Uiso   1.00
C1015  C     0.63393   0.62113   0.00017   0.00000  Uiso   1.00
C1016  C     0.62600   0.65069   0.02560   0.00000  Uiso   1.00
C1017  C     0.59484   0.69309   0.06727   0.00000  Uiso   1.00
C1018  C     0.75470   0.58058   0.00421   0.00000  Uiso   1.00
C1019  C     0.77215   0.54987   0.03232   0.00000  Uiso   1.00
C1020  C     0.82743   0.54685   0.07245   0.00000  Uiso   1.00
C1021  C     0.91284   0.52914   0.14120   0.00000  Uiso   1.00
C1022  C     0.70007   0.60197   0.90000   0.00000  Uiso   1.00
C1023  C     0.67160   0.58923   0.84050   0.00000  Uiso   1.00
C1024  C     0.68090   0.60421   0.79289   0.00000  Uiso   1.00
C1025  C     0.68149   0.61970   0.69985   0.00000  Uiso   1.00
C1026  C     0.76327   0.63862   0.98005   0.00000  Uiso   1.00
C1027  C     0.71609   0.64604   0.99829   0.00000  Uiso   1.00
C1028  C     0.70822   0.67562   0.02370   0.00000  Uiso   1.00
C1029  C     0.66254   0.67749   0.03717   0.00000  Uiso   1.00
C1030  C     0.79117   0.60733   0.01576   0.00000  Uiso   1.00
C1031  C     0.84644   0.60436   0.05585   0.00000  Uiso   1.00
C1032  C     0.86397   0.57365   0.08402   0.00000  Uiso   1.00
C1033  C     0.73654   0.62872   0.91155   0.00000  Uiso   1.00
C1034  C     0.74589   0.64372   0.86402   0.00000  Uiso   1.00
C1035  C     0.71744   0.63101   0.80446   0.00000  Uiso   1.00
H1036  H     0.66773   0.56854   0.94980   0.00000  Uiso   1.00
H1037  H     0.60572   0.60042   0.99124   0.00000  Uiso   1.00
H1038  H     0.74392   0.52917   0.02337   0.00000  Uiso   1.00
H1039  H     0.64338   0.56853   0.83158   0.00000  Uiso   1.00
H1040  H     0.55307   0.64755   0.04229   0.00000  Uiso   1.00
H1041  H     0.84446   0.49732   0.11003   0.00000  Uiso   1.00
H1042  H     0.63247   0.58031   0.70560   0.00000  Uiso   1.00
H1043  H     0.79167   0.65945   0.98904   0.00000  Uiso   1.00
H1044  H     0.73646   0.69632   0.03263   0.00000  Uiso   1.00
H1045  H     0.87465   0.62507   0.06477   0.00000  Uiso   1.00
H1046  H     0.77412   0.66442   0.87298   0.00000  Uiso   1.00
H1047  H     0.65918   0.72539   0.07589   0.00000  Uiso   1.00
H1048  H     0.95057   0.57516   0.14363   0.00000  Uiso   1.00
H1049  H     0.73858   0.65815   0.73920   0.00000  Uiso   1.00
O1050  O     0.06758   0.20908   0.08707   0.00000  Uiso   1.00
O1051  O     0.94987   0.51198   0.17594   0.00000  Uiso   1.00
O1052  O     0.67174   0.62086   0.64534   0.00000  Uiso   1.00
N1053  N     0.58561   0.66082   0.04420   0.00000  Uiso   1.00
N1054  N     0.85805   0.52036   0.10755   0.00000  Uiso   1.00
N1055  N     0.65986   0.59794   0.72944   0.00000  Uiso   1.00
N1056  N     0.64271   0.70270   0.06228   0.00000  Uiso   1.00
N1057  N     0.91514   0.56224   0.12563   0.00000  Uiso   1.00
N1058  N     0.71696   0.63982   0.74752   0.00000  Uiso   1.00
C1059  C     0.42654   0.44330   0.81821   0.00000  Uiso   1.00
C1060  C     0.47684   0.42463   0.86393   0.00000  Uiso   1.00
C1061  C     0.50745   0.43304   0.92584   0.00000  Uiso   1.00
C1062  C     0.55198   0.41281   0.95993   0.00000  Uiso   1.00
C1063  C     0.62803   0.38802   0.03502   0.00000  Uiso   1.00
C1064  C     0.38015   0.41781   0.79346   0.00000  Uiso   1.00
C1065  C     0.32947   0.42050   0.79613   0.00000  Uiso   1.00
C1066  C     0.29260   0.39452   0.77089   0.00000  Uiso   1.00
C1067  C     0.21852   0.35916   0.73654   0.00000  Uiso   1.00
C1068  C     0.43951   0.45256   0.76329   0.00000  Uiso   1.00
C1069  C     0.43873   0.48446   0.74056   0.00000  Uiso   1.00
C1070  C     0.45183   0.48774   0.68990   0.00000  Uiso   1.00
C1071  C     0.46992   0.50633   0.60870   0.00000  Uiso   1.00
C1072  C     0.45117   0.39239   0.76865   0.00000  Uiso   1.00
C1073  C     0.49022   0.39698   0.83701   0.00000  Uiso   1.00
C1074  C     0.53471   0.37672   0.87101   0.00000  Uiso   1.00
C1075  C     0.56539   0.38511   0.93297   0.00000  Uiso   1.00
C1076  C     0.39353   0.39016   0.76655   0.00000  Uiso   1.00
C1077  C     0.35673   0.36417   0.74130   0.00000  Uiso   1.00
C1078  C     0.30600   0.36682   0.74392   0.00000  Uiso   1.00
C1079  C     0.45289   0.42491   0.73637   0.00000  Uiso   1.00
C1080  C     0.46599   0.42814   0.68573   0.00000  Uiso   1.00
C1081  C     0.46523   0.46004   0.66294   0.00000  Uiso   1.00
H1082  H     0.41612   0.46482   0.83917   0.00000  Uiso   1.00
H1083  H     0.49708   0.45444   0.94666   0.00000  Uiso   1.00
H1084  H     0.31912   0.44190   0.81695   0.00000  Uiso   1.00
H1085  H     0.42837   0.50585   0.76140   0.00000  Uiso   1.00
H1086  H     0.59273   0.43074   0.05397   0.00000  Uiso   1.00
H1087  H     0.21749   0.40429   0.78046   0.00000  Uiso   1.00
H1088  H     0.44786   0.53915   0.66331   0.00000  Uiso   1.00
H1089  H     0.46159   0.37086   0.74770   0.00000  Uiso   1.00
H1090  H     0.54505   0.35532   0.85017   0.00000  Uiso   1.00
H1091  H     0.36709   0.34278   0.72047   0.00000  Uiso   1.00
H1092  H     0.47634   0.40673   0.66491   0.00000  Uiso   1.00
H1093  H     0.63167   0.35029   0.97565   0.00000  Uiso   1.00
H1094  H     0.25642   0.32384   0.70214   0.00000  Uiso   1.00
H1095  H     0.48679   0.45870   0.58500   0.00000  Uiso   1.00
O1096  O     0.66627   0.38198   0.08388   0.00000  Uiso   1.00
O1097  O     0.17397   0.34729   0.72503   0.00000  Uiso   1.00
O1098  O     0.47621   0.52422   0.57135   0.00000  Uiso   1.00
N1099  N     0.59045   0.41394   0.02147   0.00000  Uiso   1.00
N1100  N     0.23962   0.38921   0.76577   0.00000  Uiso   1.00
N1101  N     0.45498   0.51529   0.65623   0.00000  Uiso   1.00
N1102  N     0.61140   0.37065   0.97933   0.00000  Uiso   1.00
N1103  N     0.26058   0.34592   0.72363   0.00000  Uiso   1.00
N1104  N     0.47593   0.47200   0.61409   0.00000  Uiso   1.00
