data_job_02618
_audit_creation_date              2018-12-19
_audit_creation_method            'Materials Studio'
_symmetry_space_group_name_H-M    'P1'
_symmetry_Int_Tables_number       1
_symmetry_cell_setting            triclinic
loop_
_symmetry_equiv_pos_as_xyz
  x,y,z
_cell_length_a                    27.4029
_cell_length_b                    27.4029
_cell_length_c                    12.1545
_cell_angle_alpha                 90.0000
_cell_angle_beta                  90.0000
_cell_angle_gamma                 90.0000
loop_
_atom_site_label
_atom_site_type_symbol
_atom_site_fract_x
_atom_site_fract_y
_atom_site_fract_z
_atom_site_U_iso_or_equiv
_atom_site_adp_type
_atom_site_occupancy
C1     C     0.26424   0.97005   0.51357   0.00000  Uiso   1.00
C2     C     0.26468   0.93067   0.42493   0.00000  Uiso   1.00
C3     C     0.28487   0.93524   0.32073   0.00000  Uiso   1.00
C4     C     0.28152   0.89503   0.25167   0.00000  Uiso   1.00
C5     C     0.28564   0.84046   0.10885   0.00000  Uiso   1.00
C6     C     0.21082   0.97751   0.54442   0.00000  Uiso   1.00
C7     C     0.18572   0.02147   0.54069   0.00000  Uiso   1.00
C8     C     0.13702   0.02068   0.57222   0.00000  Uiso   1.00
C9     C     0.05753   0.03884   0.61497   0.00000  Uiso   1.00
C10    C     0.28854   0.94746   0.61429   0.00000  Uiso   1.00
C11    C     0.32878   0.96616   0.66932   0.00000  Uiso   1.00
C12    C     0.34551   0.94008   0.75970   0.00000  Uiso   1.00
C13    C     0.38669   0.91158   0.91093   0.00000  Uiso   1.00
C14    C     0.22239   0.89050   0.57622   0.00000  Uiso   1.00
C15    C     0.24195   0.88746   0.45897   0.00000  Uiso   1.00
C16    C     0.23857   0.84722   0.39005   0.00000  Uiso   1.00
C17    C     0.25875   0.85174   0.28576   0.00000  Uiso   1.00
C18    C     0.18809   0.93430   0.57845   0.00000  Uiso   1.00
C19    C     0.13942   0.93345   0.61000   0.00000  Uiso   1.00
C20    C     0.11425   0.97739   0.60631   0.00000  Uiso   1.00
C21    C     0.26581   0.90425   0.64832   0.00000  Uiso   1.00
C22    C     0.28248   0.87814   0.73864   0.00000  Uiso   1.00
C23    C     0.32274   0.89679   0.79379   0.00000  Uiso   1.00
H24    H     0.28193   0.00370   0.48708   0.00000  Uiso   1.00
H25    H     0.30245   0.96869   0.29442   0.00000  Uiso   1.00
H26    H     0.20332   0.05491   0.51436   0.00000  Uiso   1.00
H27    H     0.34636   0.99960   0.64296   0.00000  Uiso   1.00
H28    H     0.31516   0.91083   0.09582   0.00000  Uiso   1.00
H29    H     0.10614   0.09262   0.55960   0.00000  Uiso   1.00
H30    H     0.40776   0.97600   0.83080   0.00000  Uiso   1.00
H31    H     0.20470   0.85685   0.60272   0.00000  Uiso   1.00
H32    H     0.22098   0.81379   0.41641   0.00000  Uiso   1.00
H33    H     0.12185   0.90000   0.63634   0.00000  Uiso   1.00
H34    H     0.26489   0.84470   0.76495   0.00000  Uiso   1.00
H35    H     0.24904   0.78511   0.19483   0.00000  Uiso   1.00
H36    H     0.04001   0.96690   0.65861   0.00000  Uiso   1.00
H37    H     0.34164   0.85027   0.92981   0.00000  Uiso   1.00
O38    O     0.29419   0.82230   0.02066   0.00000  Uiso   1.00
O39    O     0.01996   0.06080   0.62914   0.00000  Uiso   1.00
O40    O     0.41569   0.90779   0.98494   0.00000  Uiso   1.00
N41    N     0.29737   0.88715   0.14470   0.00000  Uiso   1.00
N42    N     0.10195   0.05711   0.57829   0.00000  Uiso   1.00
N43    N     0.38393   0.94809   0.83185   0.00000  Uiso   1.00
N44    N     0.26179   0.81950   0.19797   0.00000  Uiso   1.00
N45    N     0.06636   0.98946   0.63156   0.00000  Uiso   1.00
N46    N     0.34835   0.88043   0.88513   0.00000  Uiso   1.00
C47    C     0.73576   0.02995   0.51357   0.00000  Uiso   1.00
C48    C     0.73532   0.06933   0.42493   0.00000  Uiso   1.00
C49    C     0.71513   0.06476   0.32073   0.00000  Uiso   1.00
C50    C     0.71848   0.10497   0.25167   0.00000  Uiso   1.00
C51    C     0.71436   0.15954   0.10885   0.00000  Uiso   1.00
C52    C     0.78918   0.02249   0.54442   0.00000  Uiso   1.00
C53    C     0.81428   0.97853   0.54069   0.00000  Uiso   1.00
C54    C     0.86298   0.97932   0.57222   0.00000  Uiso   1.00
C55    C     0.94247   0.96116   0.61497   0.00000  Uiso   1.00
C56    C     0.71146   0.05254   0.61429   0.00000  Uiso   1.00
C57    C     0.67122   0.03384   0.66932   0.00000  Uiso   1.00
C58    C     0.65449   0.05992   0.75970   0.00000  Uiso   1.00
C59    C     0.61331   0.08842   0.91093   0.00000  Uiso   1.00
C60    C     0.77761   0.10950   0.57622   0.00000  Uiso   1.00
C61    C     0.75805   0.11254   0.45897   0.00000  Uiso   1.00
C62    C     0.76143   0.15278   0.39005   0.00000  Uiso   1.00
C63    C     0.74125   0.14826   0.28576   0.00000  Uiso   1.00
C64    C     0.81191   0.06570   0.57845   0.00000  Uiso   1.00
C65    C     0.86058   0.06655   0.61000   0.00000  Uiso   1.00
C66    C     0.88575   0.02261   0.60631   0.00000  Uiso   1.00
C67    C     0.73419   0.09575   0.64832   0.00000  Uiso   1.00
C68    C     0.71752   0.12186   0.73864   0.00000  Uiso   1.00
C69    C     0.67726   0.10321   0.79379   0.00000  Uiso   1.00
H70    H     0.71807   0.99630   0.48708   0.00000  Uiso   1.00
H71    H     0.69755   0.03131   0.29442   0.00000  Uiso   1.00
H72    H     0.79668   0.94509   0.51436   0.00000  Uiso   1.00
H73    H     0.65364   0.00040   0.64296   0.00000  Uiso   1.00
H74    H     0.68484   0.08917   0.09582   0.00000  Uiso   1.00
H75    H     0.89386   0.90738   0.55960   0.00000  Uiso   1.00
H76    H     0.59224   0.02400   0.83080   0.00000  Uiso   1.00
H77    H     0.79530   0.14315   0.60272   0.00000  Uiso   1.00
H78    H     0.77902   0.18621   0.41641   0.00000  Uiso   1.00
H79    H     0.87815   0.10000   0.63634   0.00000  Uiso   1.00
H80    H     0.73511   0.15530   0.76495   0.00000  Uiso   1.00
H81    H     0.75096   0.21489   0.19483   0.00000  Uiso   1.00
H82    H     0.95999   0.03310   0.65861   0.00000  Uiso   1.00
H83    H     0.65836   0.14973   0.92981   0.00000  Uiso   1.00
O84    O     0.70581   0.17770   0.02066   0.00000  Uiso   1.00
O85    O     0.98004   0.93920   0.62914   0.00000  Uiso   1.00
O86    O     0.58431   0.09221   0.98494   0.00000  Uiso   1.00
N87    N     0.70263   0.11285   0.14470   0.00000  Uiso   1.00
N88    N     0.89805   0.94289   0.57829   0.00000  Uiso   1.00
N89    N     0.61607   0.05191   0.83185   0.00000  Uiso   1.00
N90    N     0.73821   0.18050   0.19797   0.00000  Uiso   1.00
N91    N     0.93364   0.01054   0.63156   0.00000  Uiso   1.00
N92    N     0.65165   0.11957   0.88513   0.00000  Uiso   1.00
C93    C     0.52995   0.76424   0.51357   0.00000  Uiso   1.00
C94    C     0.56933   0.76468   0.42493   0.00000  Uiso   1.00
C95    C     0.56476   0.78487   0.32073   0.00000  Uiso   1.00
C96    C     0.60497   0.78152   0.25167   0.00000  Uiso   1.00
C97    C     0.65954   0.78564   0.10885   0.00000  Uiso   1.00
C98    C     0.52249   0.71082   0.54442   0.00000  Uiso   1.00
C99    C     0.47853   0.68572   0.54069   0.00000  Uiso   1.00
C100   C     0.47932   0.63702   0.57222   0.00000  Uiso   1.00
C101   C     0.46116   0.55753   0.61497   0.00000  Uiso   1.00
C102   C     0.55254   0.78854   0.61429   0.00000  Uiso   1.00
C103   C     0.53384   0.82878   0.66932   0.00000  Uiso   1.00
C104   C     0.55992   0.84551   0.75970   0.00000  Uiso   1.00
C105   C     0.58842   0.88669   0.91093   0.00000  Uiso   1.00
C106   C     0.60950   0.72239   0.57622   0.00000  Uiso   1.00
C107   C     0.61254   0.74195   0.45897   0.00000  Uiso   1.00
C108   C     0.65278   0.73857   0.39005   0.00000  Uiso   1.00
C109   C     0.64826   0.75875   0.28576   0.00000  Uiso   1.00
C110   C     0.56570   0.68809   0.57845   0.00000  Uiso   1.00
C111   C     0.56655   0.63942   0.61000   0.00000  Uiso   1.00
C112   C     0.52261   0.61425   0.60631   0.00000  Uiso   1.00
C113   C     0.59575   0.76581   0.64832   0.00000  Uiso   1.00
C114   C     0.62186   0.78248   0.73864   0.00000  Uiso   1.00
C115   C     0.60321   0.82274   0.79379   0.00000  Uiso   1.00
H116   H     0.49630   0.78193   0.48708   0.00000  Uiso   1.00
H117   H     0.53131   0.80245   0.29442   0.00000  Uiso   1.00
H118   H     0.44509   0.70332   0.51436   0.00000  Uiso   1.00
H119   H     0.50040   0.84636   0.64296   0.00000  Uiso   1.00
H120   H     0.58917   0.81516   0.09582   0.00000  Uiso   1.00
H121   H     0.40738   0.60614   0.55960   0.00000  Uiso   1.00
H122   H     0.52400   0.90776   0.83080   0.00000  Uiso   1.00
H123   H     0.64315   0.70470   0.60272   0.00000  Uiso   1.00
H124   H     0.68621   0.72098   0.41641   0.00000  Uiso   1.00
H125   H     0.60000   0.62185   0.63634   0.00000  Uiso   1.00
H126   H     0.65530   0.76489   0.76495   0.00000  Uiso   1.00
H127   H     0.71489   0.74904   0.19483   0.00000  Uiso   1.00
H128   H     0.53310   0.54001   0.65861   0.00000  Uiso   1.00
H129   H     0.64973   0.84164   0.92981   0.00000  Uiso   1.00
O130   O     0.67770   0.79419   0.02066   0.00000  Uiso   1.00
O131   O     0.43920   0.51996   0.62914   0.00000  Uiso   1.00
O132   O     0.59221   0.91569   0.98494   0.00000  Uiso   1.00
N133   N     0.61285   0.79737   0.14470   0.00000  Uiso   1.00
N134   N     0.44289   0.60195   0.57829   0.00000  Uiso   1.00
N135   N     0.55191   0.88393   0.83185   0.00000  Uiso   1.00
N136   N     0.68050   0.76179   0.19797   0.00000  Uiso   1.00
N137   N     0.51054   0.56636   0.63156   0.00000  Uiso   1.00
N138   N     0.61957   0.84835   0.88513   0.00000  Uiso   1.00
C139   C     0.47005   0.23576   0.51357   0.00000  Uiso   1.00
C140   C     0.43067   0.23532   0.42493   0.00000  Uiso   1.00
C141   C     0.43524   0.21513   0.32073   0.00000  Uiso   1.00
C142   C     0.39503   0.21848   0.25167   0.00000  Uiso   1.00
C143   C     0.34046   0.21436   0.10885   0.00000  Uiso   1.00
C144   C     0.47751   0.28918   0.54442   0.00000  Uiso   1.00
C145   C     0.52147   0.31428   0.54069   0.00000  Uiso   1.00
C146   C     0.52068   0.36298   0.57222   0.00000  Uiso   1.00
C147   C     0.53884   0.44247   0.61497   0.00000  Uiso   1.00
C148   C     0.44746   0.21146   0.61429   0.00000  Uiso   1.00
C149   C     0.46616   0.17122   0.66932   0.00000  Uiso   1.00
C150   C     0.44008   0.15449   0.75970   0.00000  Uiso   1.00
C151   C     0.41158   0.11331   0.91093   0.00000  Uiso   1.00
C152   C     0.39050   0.27761   0.57622   0.00000  Uiso   1.00
C153   C     0.38746   0.25805   0.45897   0.00000  Uiso   1.00
C154   C     0.34722   0.26143   0.39005   0.00000  Uiso   1.00
C155   C     0.35174   0.24125   0.28576   0.00000  Uiso   1.00
C156   C     0.43430   0.31191   0.57845   0.00000  Uiso   1.00
C157   C     0.43345   0.36058   0.61000   0.00000  Uiso   1.00
C158   C     0.47739   0.38575   0.60631   0.00000  Uiso   1.00
C159   C     0.40425   0.23419   0.64832   0.00000  Uiso   1.00
C160   C     0.37814   0.21752   0.73864   0.00000  Uiso   1.00
C161   C     0.39679   0.17726   0.79379   0.00000  Uiso   1.00
H162   H     0.50370   0.21807   0.48708   0.00000  Uiso   1.00
H163   H     0.46869   0.19755   0.29442   0.00000  Uiso   1.00
H164   H     0.55491   0.29668   0.51436   0.00000  Uiso   1.00
H165   H     0.49960   0.15364   0.64296   0.00000  Uiso   1.00
H166   H     0.41083   0.18484   0.09582   0.00000  Uiso   1.00
H167   H     0.59262   0.39386   0.55960   0.00000  Uiso   1.00
H168   H     0.47600   0.09224   0.83080   0.00000  Uiso   1.00
H169   H     0.35685   0.29530   0.60272   0.00000  Uiso   1.00
H170   H     0.31379   0.27902   0.41641   0.00000  Uiso   1.00
H171   H     0.40000   0.37815   0.63634   0.00000  Uiso   1.00
H172   H     0.34470   0.23511   0.76495   0.00000  Uiso   1.00
H173   H     0.28511   0.25096   0.19483   0.00000  Uiso   1.00
H174   H     0.46690   0.45999   0.65861   0.00000  Uiso   1.00
H175   H     0.35027   0.15836   0.92981   0.00000  Uiso   1.00
O176   O     0.32230   0.20581   0.02066   0.00000  Uiso   1.00
O177   O     0.56080   0.48004   0.62914   0.00000  Uiso   1.00
O178   O     0.40779   0.08431   0.98494   0.00000  Uiso   1.00
N179   N     0.38715   0.20263   0.14470   0.00000  Uiso   1.00
N180   N     0.55711   0.39805   0.57829   0.00000  Uiso   1.00
N181   N     0.44809   0.11607   0.83185   0.00000  Uiso   1.00
N182   N     0.31950   0.23821   0.19797   0.00000  Uiso   1.00
N183   N     0.48946   0.43364   0.63156   0.00000  Uiso   1.00
N184   N     0.38043   0.15165   0.88513   0.00000  Uiso   1.00
C185   C     0.23576   0.47005   0.98643   0.00000  Uiso   1.00
C186   C     0.23532   0.43067   0.07507   0.00000  Uiso   1.00
C187   C     0.21513   0.43524   0.17927   0.00000  Uiso   1.00
C188   C     0.21848   0.39503   0.24833   0.00000  Uiso   1.00
C189   C     0.21436   0.34046   0.39115   0.00000  Uiso   1.00
C190   C     0.28918   0.47751   0.95558   0.00000  Uiso   1.00
C191   C     0.31428   0.52147   0.95931   0.00000  Uiso   1.00
C192   C     0.36298   0.52068   0.92778   0.00000  Uiso   1.00
C193   C     0.44247   0.53884   0.88503   0.00000  Uiso   1.00
C194   C     0.21146   0.44746   0.88571   0.00000  Uiso   1.00
C195   C     0.17122   0.46616   0.83068   0.00000  Uiso   1.00
C196   C     0.15449   0.44008   0.74030   0.00000  Uiso   1.00
C197   C     0.11331   0.41158   0.58907   0.00000  Uiso   1.00
C198   C     0.27761   0.39050   0.92378   0.00000  Uiso   1.00
C199   C     0.25805   0.38746   0.04103   0.00000  Uiso   1.00
C200   C     0.26143   0.34722   0.10995   0.00000  Uiso   1.00
C201   C     0.24125   0.35174   0.21424   0.00000  Uiso   1.00
C202   C     0.31191   0.43430   0.92155   0.00000  Uiso   1.00
C203   C     0.36058   0.43345   0.89000   0.00000  Uiso   1.00
C204   C     0.38575   0.47739   0.89369   0.00000  Uiso   1.00
C205   C     0.23419   0.40425   0.85168   0.00000  Uiso   1.00
C206   C     0.21752   0.37814   0.76136   0.00000  Uiso   1.00
C207   C     0.17726   0.39679   0.70621   0.00000  Uiso   1.00
H208   H     0.21807   0.50370   0.01292   0.00000  Uiso   1.00
H209   H     0.19755   0.46869   0.20558   0.00000  Uiso   1.00
H210   H     0.29668   0.55491   0.98564   0.00000  Uiso   1.00
H211   H     0.15364   0.49960   0.85704   0.00000  Uiso   1.00
H212   H     0.18484   0.41083   0.40418   0.00000  Uiso   1.00
H213   H     0.39386   0.59262   0.94040   0.00000  Uiso   1.00
H214   H     0.09224   0.47600   0.66920   0.00000  Uiso   1.00
H215   H     0.29530   0.35685   0.89728   0.00000  Uiso   1.00
H216   H     0.27902   0.31379   0.08359   0.00000  Uiso   1.00
H217   H     0.37815   0.40000   0.86366   0.00000  Uiso   1.00
H218   H     0.23511   0.34470   0.73505   0.00000  Uiso   1.00
H219   H     0.25096   0.28511   0.30517   0.00000  Uiso   1.00
H220   H     0.45999   0.46690   0.84139   0.00000  Uiso   1.00
H221   H     0.15836   0.35027   0.57019   0.00000  Uiso   1.00
O222   O     0.20581   0.32230   0.47934   0.00000  Uiso   1.00
O223   O     0.48004   0.56080   0.87086   0.00000  Uiso   1.00
O224   O     0.08431   0.40779   0.51506   0.00000  Uiso   1.00
N225   N     0.20263   0.38715   0.35530   0.00000  Uiso   1.00
N226   N     0.39805   0.55711   0.92171   0.00000  Uiso   1.00
N227   N     0.11607   0.44809   0.66815   0.00000  Uiso   1.00
N228   N     0.23821   0.31950   0.30203   0.00000  Uiso   1.00
N229   N     0.43364   0.48946   0.86844   0.00000  Uiso   1.00
N230   N     0.15165   0.38043   0.61487   0.00000  Uiso   1.00
C231   C     0.76424   0.52995   0.98643   0.00000  Uiso   1.00
C232   C     0.76468   0.56933   0.07507   0.00000  Uiso   1.00
C233   C     0.78487   0.56476   0.17927   0.00000  Uiso   1.00
C234   C     0.78152   0.60497   0.24833   0.00000  Uiso   1.00
C235   C     0.78564   0.65954   0.39115   0.00000  Uiso   1.00
C236   C     0.71082   0.52249   0.95558   0.00000  Uiso   1.00
C237   C     0.68572   0.47853   0.95931   0.00000  Uiso   1.00
C238   C     0.63702   0.47932   0.92778   0.00000  Uiso   1.00
C239   C     0.55753   0.46116   0.88503   0.00000  Uiso   1.00
C240   C     0.78854   0.55254   0.88571   0.00000  Uiso   1.00
C241   C     0.82878   0.53384   0.83068   0.00000  Uiso   1.00
C242   C     0.84551   0.55992   0.74030   0.00000  Uiso   1.00
C243   C     0.88669   0.58842   0.58907   0.00000  Uiso   1.00
C244   C     0.72239   0.60950   0.92378   0.00000  Uiso   1.00
C245   C     0.74195   0.61254   0.04103   0.00000  Uiso   1.00
C246   C     0.73857   0.65278   0.10995   0.00000  Uiso   1.00
C247   C     0.75875   0.64826   0.21424   0.00000  Uiso   1.00
C248   C     0.68809   0.56570   0.92155   0.00000  Uiso   1.00
C249   C     0.63942   0.56655   0.89000   0.00000  Uiso   1.00
C250   C     0.61425   0.52261   0.89369   0.00000  Uiso   1.00
C251   C     0.76581   0.59575   0.85168   0.00000  Uiso   1.00
C252   C     0.78248   0.62186   0.76136   0.00000  Uiso   1.00
C253   C     0.82274   0.60321   0.70621   0.00000  Uiso   1.00
H254   H     0.78193   0.49630   0.01292   0.00000  Uiso   1.00
H255   H     0.80245   0.53131   0.20558   0.00000  Uiso   1.00
H256   H     0.70332   0.44509   0.98564   0.00000  Uiso   1.00
H257   H     0.84636   0.50040   0.85704   0.00000  Uiso   1.00
H258   H     0.81516   0.58917   0.40418   0.00000  Uiso   1.00
H259   H     0.60614   0.40738   0.94040   0.00000  Uiso   1.00
H260   H     0.90776   0.52400   0.66920   0.00000  Uiso   1.00
H261   H     0.70470   0.64315   0.89728   0.00000  Uiso   1.00
H262   H     0.72098   0.68621   0.08359   0.00000  Uiso   1.00
H263   H     0.62185   0.60000   0.86366   0.00000  Uiso   1.00
H264   H     0.76489   0.65530   0.73505   0.00000  Uiso   1.00
H265   H     0.74904   0.71489   0.30517   0.00000  Uiso   1.00
H266   H     0.54001   0.53310   0.84139   0.00000  Uiso   1.00
H267   H     0.84164   0.64973   0.57019   0.00000  Uiso   1.00
O268   O     0.79419   0.67770   0.47934   0.00000  Uiso   1.00
O269   O     0.51996   0.43920   0.87086   0.00000  Uiso   1.00
O270   O     0.91569   0.59221   0.51506   0.00000  Uiso   1.00
N271   N     0.79737   0.61285   0.35530   0.00000  Uiso   1.00
N272   N     0.60195   0.44289   0.92171   0.00000  Uiso   1.00
N273   N     0.88393   0.55191   0.66815   0.00000  Uiso   1.00
N274   N     0.76179   0.68050   0.30203   0.00000  Uiso   1.00
N275   N     0.56636   0.51054   0.86844   0.00000  Uiso   1.00
N276   N     0.84835   0.61957   0.61487   0.00000  Uiso   1.00
C277   C     0.97005   0.26424   0.98643   0.00000  Uiso   1.00
C278   C     0.93067   0.26468   0.07507   0.00000  Uiso   1.00
C279   C     0.93524   0.28487   0.17927   0.00000  Uiso   1.00
C280   C     0.89503   0.28152   0.24833   0.00000  Uiso   1.00
C281   C     0.84046   0.28564   0.39115   0.00000  Uiso   1.00
C282   C     0.97751   0.21082   0.95558   0.00000  Uiso   1.00
C283   C     0.02147   0.18572   0.95931   0.00000  Uiso   1.00
C284   C     0.02068   0.13702   0.92778   0.00000  Uiso   1.00
C285   C     0.03884   0.05753   0.88503   0.00000  Uiso   1.00
C286   C     0.94746   0.28854   0.88571   0.00000  Uiso   1.00
C287   C     0.96616   0.32878   0.83068   0.00000  Uiso   1.00
C288   C     0.94008   0.34551   0.74030   0.00000  Uiso   1.00
C289   C     0.91158   0.38669   0.58907   0.00000  Uiso   1.00
C290   C     0.89050   0.22239   0.92378   0.00000  Uiso   1.00
C291   C     0.88746   0.24195   0.04103   0.00000  Uiso   1.00
C292   C     0.84722   0.23857   0.10995   0.00000  Uiso   1.00
C293   C     0.85174   0.25875   0.21424   0.00000  Uiso   1.00
C294   C     0.93430   0.18809   0.92155   0.00000  Uiso   1.00
C295   C     0.93345   0.13942   0.89000   0.00000  Uiso   1.00
C296   C     0.97739   0.11425   0.89369   0.00000  Uiso   1.00
C297   C     0.90425   0.26581   0.85168   0.00000  Uiso   1.00
C298   C     0.87814   0.28248   0.76136   0.00000  Uiso   1.00
C299   C     0.89679   0.32274   0.70621   0.00000  Uiso   1.00
H300   H     0.00370   0.28193   0.01292   0.00000  Uiso   1.00
H301   H     0.96869   0.30245   0.20558   0.00000  Uiso   1.00
H302   H     0.05491   0.20332   0.98564   0.00000  Uiso   1.00
H303   H     0.99960   0.34636   0.85704   0.00000  Uiso   1.00
H304   H     0.91083   0.31516   0.40418   0.00000  Uiso   1.00
H305   H     0.09262   0.10614   0.94040   0.00000  Uiso   1.00
H306   H     0.97600   0.40776   0.66920   0.00000  Uiso   1.00
H307   H     0.85685   0.20470   0.89728   0.00000  Uiso   1.00
H308   H     0.81379   0.22098   0.08359   0.00000  Uiso   1.00
H309   H     0.90000   0.12185   0.86366   0.00000  Uiso   1.00
H310   H     0.84470   0.26489   0.73505   0.00000  Uiso   1.00
H311   H     0.78511   0.24904   0.30517   0.00000  Uiso   1.00
H312   H     0.96690   0.04001   0.84139   0.00000  Uiso   1.00
H313   H     0.85027   0.34164   0.57019   0.00000  Uiso   1.00
O314   O     0.82230   0.29419   0.47934   0.00000  Uiso   1.00
O315   O     0.06080   0.01996   0.87086   0.00000  Uiso   1.00
O316   O     0.90779   0.41569   0.51506   0.00000  Uiso   1.00
N317   N     0.88715   0.29737   0.35530   0.00000  Uiso   1.00
N318   N     0.05711   0.10195   0.92171   0.00000  Uiso   1.00
N319   N     0.94809   0.38393   0.66815   0.00000  Uiso   1.00
N320   N     0.81950   0.26179   0.30203   0.00000  Uiso   1.00
N321   N     0.98946   0.06636   0.86844   0.00000  Uiso   1.00
N322   N     0.88043   0.34835   0.61487   0.00000  Uiso   1.00
C323   C     0.02995   0.73576   0.98643   0.00000  Uiso   1.00
C324   C     0.06933   0.73532   0.07507   0.00000  Uiso   1.00
C325   C     0.06476   0.71513   0.17927   0.00000  Uiso   1.00
C326   C     0.10497   0.71848   0.24833   0.00000  Uiso   1.00
C327   C     0.15954   0.71436   0.39115   0.00000  Uiso   1.00
C328   C     0.02249   0.78918   0.95558   0.00000  Uiso   1.00
C329   C     0.97853   0.81428   0.95931   0.00000  Uiso   1.00
C330   C     0.97932   0.86298   0.92778   0.00000  Uiso   1.00
C331   C     0.96116   0.94247   0.88503   0.00000  Uiso   1.00
C332   C     0.05254   0.71146   0.88571   0.00000  Uiso   1.00
C333   C     0.03384   0.67122   0.83068   0.00000  Uiso   1.00
C334   C     0.05992   0.65449   0.74030   0.00000  Uiso   1.00
C335   C     0.08842   0.61331   0.58907   0.00000  Uiso   1.00
C336   C     0.10950   0.77761   0.92378   0.00000  Uiso   1.00
C337   C     0.11254   0.75805   0.04103   0.00000  Uiso   1.00
C338   C     0.15278   0.76143   0.10995   0.00000  Uiso   1.00
C339   C     0.14826   0.74125   0.21424   0.00000  Uiso   1.00
C340   C     0.06570   0.81191   0.92155   0.00000  Uiso   1.00
C341   C     0.06655   0.86058   0.89000   0.00000  Uiso   1.00
C342   C     0.02261   0.88575   0.89369   0.00000  Uiso   1.00
C343   C     0.09575   0.73419   0.85168   0.00000  Uiso   1.00
C344   C     0.12186   0.71752   0.76136   0.00000  Uiso   1.00
C345   C     0.10321   0.67726   0.70621   0.00000  Uiso   1.00
H346   H     0.99630   0.71807   0.01292   0.00000  Uiso   1.00
H347   H     0.03131   0.69755   0.20558   0.00000  Uiso   1.00
H348   H     0.94509   0.79668   0.98564   0.00000  Uiso   1.00
H349   H     0.00040   0.65364   0.85704   0.00000  Uiso   1.00
H350   H     0.08917   0.68484   0.40418   0.00000  Uiso   1.00
H351   H     0.90738   0.89386   0.94040   0.00000  Uiso   1.00
H352   H     0.02400   0.59224   0.66920   0.00000  Uiso   1.00
H353   H     0.14315   0.79530   0.89728   0.00000  Uiso   1.00
H354   H     0.18621   0.77902   0.08359   0.00000  Uiso   1.00
H355   H     0.10000   0.87815   0.86366   0.00000  Uiso   1.00
H356   H     0.15530   0.73511   0.73505   0.00000  Uiso   1.00
H357   H     0.21489   0.75096   0.30517   0.00000  Uiso   1.00
H358   H     0.03310   0.95999   0.84139   0.00000  Uiso   1.00
H359   H     0.14973   0.65836   0.57019   0.00000  Uiso   1.00
O360   O     0.17770   0.70581   0.47934   0.00000  Uiso   1.00
O361   O     0.93920   0.98004   0.87086   0.00000  Uiso   1.00
O362   O     0.09221   0.58431   0.51506   0.00000  Uiso   1.00
N363   N     0.11285   0.70263   0.35530   0.00000  Uiso   1.00
N364   N     0.94289   0.89805   0.92171   0.00000  Uiso   1.00
N365   N     0.05191   0.61607   0.66815   0.00000  Uiso   1.00
N366   N     0.18050   0.73821   0.30203   0.00000  Uiso   1.00
N367   N     0.01054   0.93364   0.86844   0.00000  Uiso   1.00
N368   N     0.11957   0.65165   0.61487   0.00000  Uiso   1.00
C369   C     0.23576   0.52995   0.48643   0.00000  Uiso   1.00
C370   C     0.23532   0.56933   0.57507   0.00000  Uiso   1.00
C371   C     0.21513   0.56476   0.67927   0.00000  Uiso   1.00
C372   C     0.21848   0.60497   0.74833   0.00000  Uiso   1.00
C373   C     0.21436   0.65954   0.89115   0.00000  Uiso   1.00
C374   C     0.28918   0.52249   0.45558   0.00000  Uiso   1.00
C375   C     0.31428   0.47853   0.45931   0.00000  Uiso   1.00
C376   C     0.36298   0.47932   0.42778   0.00000  Uiso   1.00
C377   C     0.44247   0.46116   0.38503   0.00000  Uiso   1.00
C378   C     0.21146   0.55254   0.38571   0.00000  Uiso   1.00
C379   C     0.17122   0.53384   0.33068   0.00000  Uiso   1.00
C380   C     0.15449   0.55992   0.24030   0.00000  Uiso   1.00
C381   C     0.11331   0.58842   0.08907   0.00000  Uiso   1.00
C382   C     0.27761   0.60950   0.42378   0.00000  Uiso   1.00
C383   C     0.25805   0.61254   0.54103   0.00000  Uiso   1.00
C384   C     0.26143   0.65278   0.60995   0.00000  Uiso   1.00
C385   C     0.24125   0.64826   0.71424   0.00000  Uiso   1.00
C386   C     0.31191   0.56570   0.42155   0.00000  Uiso   1.00
C387   C     0.36058   0.56655   0.39000   0.00000  Uiso   1.00
C388   C     0.38575   0.52261   0.39369   0.00000  Uiso   1.00
C389   C     0.23419   0.59575   0.35168   0.00000  Uiso   1.00
C390   C     0.21752   0.62186   0.26136   0.00000  Uiso   1.00
C391   C     0.17726   0.60321   0.20621   0.00000  Uiso   1.00
H392   H     0.21807   0.49630   0.51292   0.00000  Uiso   1.00
H393   H     0.19755   0.53131   0.70558   0.00000  Uiso   1.00
H394   H     0.29668   0.44509   0.48564   0.00000  Uiso   1.00
H395   H     0.15364   0.50040   0.35704   0.00000  Uiso   1.00
H396   H     0.18484   0.58917   0.90418   0.00000  Uiso   1.00
H397   H     0.39386   0.40738   0.44040   0.00000  Uiso   1.00
H398   H     0.09224   0.52400   0.16920   0.00000  Uiso   1.00
H399   H     0.29530   0.64315   0.39728   0.00000  Uiso   1.00
H400   H     0.27902   0.68621   0.58359   0.00000  Uiso   1.00
H401   H     0.37815   0.60000   0.36366   0.00000  Uiso   1.00
H402   H     0.23511   0.65530   0.23505   0.00000  Uiso   1.00
H403   H     0.25096   0.71489   0.80517   0.00000  Uiso   1.00
H404   H     0.45999   0.53310   0.34139   0.00000  Uiso   1.00
H405   H     0.15836   0.64973   0.07019   0.00000  Uiso   1.00
O406   O     0.20581   0.67770   0.97934   0.00000  Uiso   1.00
O407   O     0.48004   0.43920   0.37086   0.00000  Uiso   1.00
O408   O     0.08431   0.59221   0.01506   0.00000  Uiso   1.00
N409   N     0.20263   0.61285   0.85530   0.00000  Uiso   1.00
N410   N     0.39805   0.44289   0.42171   0.00000  Uiso   1.00
N411   N     0.11607   0.55191   0.16815   0.00000  Uiso   1.00
N412   N     0.23821   0.68050   0.80203   0.00000  Uiso   1.00
N413   N     0.43364   0.51054   0.36844   0.00000  Uiso   1.00
N414   N     0.15165   0.61957   0.11487   0.00000  Uiso   1.00
C415   C     0.76424   0.47005   0.48643   0.00000  Uiso   1.00
C416   C     0.76468   0.43067   0.57507   0.00000  Uiso   1.00
C417   C     0.78487   0.43524   0.67927   0.00000  Uiso   1.00
C418   C     0.78152   0.39503   0.74833   0.00000  Uiso   1.00
C419   C     0.78564   0.34046   0.89115   0.00000  Uiso   1.00
C420   C     0.71082   0.47751   0.45558   0.00000  Uiso   1.00
C421   C     0.68572   0.52147   0.45931   0.00000  Uiso   1.00
C422   C     0.63702   0.52068   0.42778   0.00000  Uiso   1.00
C423   C     0.55753   0.53884   0.38503   0.00000  Uiso   1.00
C424   C     0.78854   0.44746   0.38571   0.00000  Uiso   1.00
C425   C     0.82878   0.46616   0.33068   0.00000  Uiso   1.00
C426   C     0.84551   0.44008   0.24030   0.00000  Uiso   1.00
C427   C     0.88669   0.41158   0.08907   0.00000  Uiso   1.00
C428   C     0.72239   0.39050   0.42378   0.00000  Uiso   1.00
C429   C     0.74195   0.38746   0.54103   0.00000  Uiso   1.00
C430   C     0.73857   0.34722   0.60995   0.00000  Uiso   1.00
C431   C     0.75875   0.35174   0.71424   0.00000  Uiso   1.00
C432   C     0.68809   0.43430   0.42155   0.00000  Uiso   1.00
C433   C     0.63942   0.43345   0.39000   0.00000  Uiso   1.00
C434   C     0.61425   0.47739   0.39369   0.00000  Uiso   1.00
C435   C     0.76581   0.40425   0.35168   0.00000  Uiso   1.00
C436   C     0.78248   0.37814   0.26136   0.00000  Uiso   1.00
C437   C     0.82274   0.39679   0.20621   0.00000  Uiso   1.00
H438   H     0.78193   0.50370   0.51292   0.00000  Uiso   1.00
H439   H     0.80245   0.46869   0.70558   0.00000  Uiso   1.00
H440   H     0.70332   0.55491   0.48564   0.00000  Uiso   1.00
H441   H     0.84636   0.49960   0.35704   0.00000  Uiso   1.00
H442   H     0.81516   0.41083   0.90418   0.00000  Uiso   1.00
H443   H     0.60614   0.59262   0.44040   0.00000  Uiso   1.00
H444   H     0.90776   0.47600   0.16920   0.00000  Uiso   1.00
H445   H     0.70470   0.35685   0.39728   0.00000  Uiso   1.00
H446   H     0.72098   0.31379   0.58359   0.00000  Uiso   1.00
H447   H     0.62185   0.40000   0.36366   0.00000  Uiso   1.00
H448   H     0.76489   0.34470   0.23505   0.00000  Uiso   1.00
H449   H     0.74904   0.28511   0.80517   0.00000  Uiso   1.00
H450   H     0.54001   0.46690   0.34139   0.00000  Uiso   1.00
H451   H     0.84164   0.35027   0.07019   0.00000  Uiso   1.00
O452   O     0.79419   0.32230   0.97934   0.00000  Uiso   1.00
O453   O     0.51996   0.56080   0.37086   0.00000  Uiso   1.00
O454   O     0.91569   0.40779   0.01506   0.00000  Uiso   1.00
N455   N     0.79737   0.38715   0.85530   0.00000  Uiso   1.00
N456   N     0.60195   0.55711   0.42171   0.00000  Uiso   1.00
N457   N     0.88393   0.44809   0.16815   0.00000  Uiso   1.00
N458   N     0.76179   0.31950   0.80203   0.00000  Uiso   1.00
N459   N     0.56636   0.48946   0.36844   0.00000  Uiso   1.00
N460   N     0.84835   0.38043   0.11487   0.00000  Uiso   1.00
C461   C     0.97005   0.73576   0.48643   0.00000  Uiso   1.00
C462   C     0.93067   0.73532   0.57507   0.00000  Uiso   1.00
C463   C     0.93524   0.71513   0.67927   0.00000  Uiso   1.00
C464   C     0.89503   0.71848   0.74833   0.00000  Uiso   1.00
C465   C     0.84046   0.71436   0.89115   0.00000  Uiso   1.00
C466   C     0.97751   0.78918   0.45558   0.00000  Uiso   1.00
C467   C     0.02147   0.81428   0.45931   0.00000  Uiso   1.00
C468   C     0.02068   0.86298   0.42778   0.00000  Uiso   1.00
C469   C     0.03884   0.94247   0.38503   0.00000  Uiso   1.00
C470   C     0.94746   0.71146   0.38571   0.00000  Uiso   1.00
C471   C     0.96616   0.67122   0.33068   0.00000  Uiso   1.00
C472   C     0.94008   0.65449   0.24030   0.00000  Uiso   1.00
C473   C     0.91158   0.61331   0.08907   0.00000  Uiso   1.00
C474   C     0.89050   0.77761   0.42378   0.00000  Uiso   1.00
C475   C     0.88746   0.75805   0.54103   0.00000  Uiso   1.00
C476   C     0.84722   0.76143   0.60995   0.00000  Uiso   1.00
C477   C     0.85174   0.74125   0.71424   0.00000  Uiso   1.00
C478   C     0.93430   0.81191   0.42155   0.00000  Uiso   1.00
C479   C     0.93345   0.86058   0.39000   0.00000  Uiso   1.00
C480   C     0.97739   0.88575   0.39369   0.00000  Uiso   1.00
C481   C     0.90425   0.73419   0.35168   0.00000  Uiso   1.00
C482   C     0.87814   0.71752   0.26136   0.00000  Uiso   1.00
C483   C     0.89679   0.67726   0.20621   0.00000  Uiso   1.00
H484   H     0.00370   0.71807   0.51292   0.00000  Uiso   1.00
H485   H     0.96869   0.69755   0.70558   0.00000  Uiso   1.00
H486   H     0.05491   0.79668   0.48564   0.00000  Uiso   1.00
H487   H     0.99960   0.65364   0.35704   0.00000  Uiso   1.00
H488   H     0.91083   0.68484   0.90418   0.00000  Uiso   1.00
H489   H     0.09262   0.89386   0.44040   0.00000  Uiso   1.00
H490   H     0.97600   0.59224   0.16920   0.00000  Uiso   1.00
H491   H     0.85685   0.79530   0.39728   0.00000  Uiso   1.00
H492   H     0.81379   0.77902   0.58359   0.00000  Uiso   1.00
H493   H     0.90000   0.87815   0.36366   0.00000  Uiso   1.00
H494   H     0.84470   0.73511   0.23505   0.00000  Uiso   1.00
H495   H     0.78511   0.75096   0.80517   0.00000  Uiso   1.00
H496   H     0.96690   0.95999   0.34139   0.00000  Uiso   1.00
H497   H     0.85027   0.65836   0.07019   0.00000  Uiso   1.00
O498   O     0.82230   0.70581   0.97934   0.00000  Uiso   1.00
O499   O     0.06080   0.98004   0.37086   0.00000  Uiso   1.00
O500   O     0.90779   0.58431   0.01506   0.00000  Uiso   1.00
N501   N     0.88715   0.70263   0.85530   0.00000  Uiso   1.00
N502   N     0.05711   0.89805   0.42171   0.00000  Uiso   1.00
N503   N     0.94809   0.61607   0.16815   0.00000  Uiso   1.00
N504   N     0.81950   0.73821   0.80203   0.00000  Uiso   1.00
N505   N     0.98946   0.93364   0.36844   0.00000  Uiso   1.00
N506   N     0.88043   0.65165   0.11487   0.00000  Uiso   1.00
C507   C     0.02995   0.26424   0.48643   0.00000  Uiso   1.00
C508   C     0.06933   0.26468   0.57507   0.00000  Uiso   1.00
C509   C     0.06476   0.28487   0.67927   0.00000  Uiso   1.00
C510   C     0.10497   0.28152   0.74833   0.00000  Uiso   1.00
C511   C     0.15954   0.28564   0.89115   0.00000  Uiso   1.00
C512   C     0.02249   0.21082   0.45558   0.00000  Uiso   1.00
C513   C     0.97853   0.18572   0.45931   0.00000  Uiso   1.00
C514   C     0.97932   0.13702   0.42778   0.00000  Uiso   1.00
C515   C     0.96116   0.05753   0.38503   0.00000  Uiso   1.00
C516   C     0.05254   0.28854   0.38571   0.00000  Uiso   1.00
C517   C     0.03384   0.32878   0.33068   0.00000  Uiso   1.00
C518   C     0.05992   0.34551   0.24030   0.00000  Uiso   1.00
C519   C     0.08842   0.38669   0.08907   0.00000  Uiso   1.00
C520   C     0.10950   0.22239   0.42378   0.00000  Uiso   1.00
C521   C     0.11254   0.24195   0.54103   0.00000  Uiso   1.00
C522   C     0.15278   0.23857   0.60995   0.00000  Uiso   1.00
C523   C     0.14826   0.25875   0.71424   0.00000  Uiso   1.00
C524   C     0.06570   0.18809   0.42155   0.00000  Uiso   1.00
C525   C     0.06655   0.13942   0.39000   0.00000  Uiso   1.00
C526   C     0.02261   0.11425   0.39369   0.00000  Uiso   1.00
C527   C     0.09575   0.26581   0.35168   0.00000  Uiso   1.00
C528   C     0.12186   0.28248   0.26136   0.00000  Uiso   1.00
C529   C     0.10321   0.32274   0.20621   0.00000  Uiso   1.00
H530   H     0.99630   0.28193   0.51292   0.00000  Uiso   1.00
H531   H     0.03131   0.30245   0.70558   0.00000  Uiso   1.00
H532   H     0.94509   0.20332   0.48564   0.00000  Uiso   1.00
H533   H     0.00040   0.34636   0.35704   0.00000  Uiso   1.00
H534   H     0.08917   0.31516   0.90418   0.00000  Uiso   1.00
H535   H     0.90738   0.10614   0.44040   0.00000  Uiso   1.00
H536   H     0.02400   0.40776   0.16920   0.00000  Uiso   1.00
H537   H     0.14315   0.20470   0.39728   0.00000  Uiso   1.00
H538   H     0.18621   0.22098   0.58359   0.00000  Uiso   1.00
H539   H     0.10000   0.12185   0.36366   0.00000  Uiso   1.00
H540   H     0.15530   0.26489   0.23505   0.00000  Uiso   1.00
H541   H     0.21489   0.24904   0.80517   0.00000  Uiso   1.00
H542   H     0.03310   0.04001   0.34139   0.00000  Uiso   1.00
H543   H     0.14973   0.34164   0.07019   0.00000  Uiso   1.00
O544   O     0.17770   0.29419   0.97934   0.00000  Uiso   1.00
O545   O     0.93920   0.01996   0.37086   0.00000  Uiso   1.00
O546   O     0.09221   0.41569   0.01506   0.00000  Uiso   1.00
N547   N     0.11285   0.29737   0.85530   0.00000  Uiso   1.00
N548   N     0.94289   0.10195   0.42171   0.00000  Uiso   1.00
N549   N     0.05191   0.38393   0.16815   0.00000  Uiso   1.00
N550   N     0.18050   0.26179   0.80203   0.00000  Uiso   1.00
N551   N     0.01054   0.06636   0.36844   0.00000  Uiso   1.00
N552   N     0.11957   0.34835   0.11487   0.00000  Uiso   1.00
C553   C     0.26424   0.02995   0.01357   0.00000  Uiso   1.00
C554   C     0.26468   0.06933   0.92493   0.00000  Uiso   1.00
C555   C     0.28487   0.06476   0.82073   0.00000  Uiso   1.00
C556   C     0.28152   0.10497   0.75167   0.00000  Uiso   1.00
C557   C     0.28564   0.15954   0.60885   0.00000  Uiso   1.00
C558   C     0.21082   0.02249   0.04442   0.00000  Uiso   1.00
C559   C     0.18572   0.97853   0.04069   0.00000  Uiso   1.00
C560   C     0.13702   0.97932   0.07222   0.00000  Uiso   1.00
C561   C     0.05753   0.96116   0.11497   0.00000  Uiso   1.00
C562   C     0.28854   0.05254   0.11429   0.00000  Uiso   1.00
C563   C     0.32878   0.03384   0.16932   0.00000  Uiso   1.00
C564   C     0.34551   0.05992   0.25970   0.00000  Uiso   1.00
C565   C     0.38669   0.08842   0.41093   0.00000  Uiso   1.00
C566   C     0.22239   0.10950   0.07622   0.00000  Uiso   1.00
C567   C     0.24195   0.11254   0.95897   0.00000  Uiso   1.00
C568   C     0.23857   0.15278   0.89005   0.00000  Uiso   1.00
C569   C     0.25875   0.14826   0.78576   0.00000  Uiso   1.00
C570   C     0.18809   0.06570   0.07845   0.00000  Uiso   1.00
C571   C     0.13942   0.06655   0.11000   0.00000  Uiso   1.00
C572   C     0.11425   0.02261   0.10631   0.00000  Uiso   1.00
C573   C     0.26581   0.09575   0.14832   0.00000  Uiso   1.00
C574   C     0.28248   0.12186   0.23864   0.00000  Uiso   1.00
C575   C     0.32274   0.10321   0.29379   0.00000  Uiso   1.00
H576   H     0.28193   0.99630   0.98708   0.00000  Uiso   1.00
H577   H     0.30245   0.03131   0.79442   0.00000  Uiso   1.00
H578   H     0.20332   0.94509   0.01436   0.00000  Uiso   1.00
H579   H     0.34636   0.00040   0.14296   0.00000  Uiso   1.00
H580   H     0.31516   0.08917   0.59582   0.00000  Uiso   1.00
H581   H     0.10614   0.90738   0.05960   0.00000  Uiso   1.00
H582   H     0.40776   0.02400   0.33080   0.00000  Uiso   1.00
H583   H     0.20470   0.14315   0.10272   0.00000  Uiso   1.00
H584   H     0.22098   0.18621   0.91641   0.00000  Uiso   1.00
H585   H     0.12185   0.10000   0.13634   0.00000  Uiso   1.00
H586   H     0.26489   0.15530   0.26495   0.00000  Uiso   1.00
H587   H     0.24904   0.21489   0.69483   0.00000  Uiso   1.00
H588   H     0.04001   0.03310   0.15861   0.00000  Uiso   1.00
H589   H     0.34164   0.14973   0.42981   0.00000  Uiso   1.00
O590   O     0.29419   0.17770   0.52066   0.00000  Uiso   1.00
O591   O     0.01996   0.93920   0.12914   0.00000  Uiso   1.00
O592   O     0.41569   0.09221   0.48494   0.00000  Uiso   1.00
N593   N     0.29737   0.11285   0.64470   0.00000  Uiso   1.00
N594   N     0.10195   0.94289   0.07829   0.00000  Uiso   1.00
N595   N     0.38393   0.05191   0.33185   0.00000  Uiso   1.00
N596   N     0.26179   0.18050   0.69797   0.00000  Uiso   1.00
N597   N     0.06636   0.01054   0.13156   0.00000  Uiso   1.00
N598   N     0.34835   0.11957   0.38513   0.00000  Uiso   1.00
C599   C     0.73576   0.97005   0.01357   0.00000  Uiso   1.00
C600   C     0.73532   0.93067   0.92493   0.00000  Uiso   1.00
C601   C     0.71513   0.93524   0.82073   0.00000  Uiso   1.00
C602   C     0.71848   0.89503   0.75167   0.00000  Uiso   1.00
C603   C     0.71436   0.84046   0.60885   0.00000  Uiso   1.00
C604   C     0.78918   0.97751   0.04442   0.00000  Uiso   1.00
C605   C     0.81428   0.02147   0.04069   0.00000  Uiso   1.00
C606   C     0.86298   0.02068   0.07222   0.00000  Uiso   1.00
C607   C     0.94247   0.03884   0.11497   0.00000  Uiso   1.00
C608   C     0.71146   0.94746   0.11429   0.00000  Uiso   1.00
C609   C     0.67122   0.96616   0.16932   0.00000  Uiso   1.00
C610   C     0.65449   0.94008   0.25970   0.00000  Uiso   1.00
C611   C     0.61331   0.91158   0.41093   0.00000  Uiso   1.00
C612   C     0.77761   0.89050   0.07622   0.00000  Uiso   1.00
C613   C     0.75805   0.88746   0.95897   0.00000  Uiso   1.00
C614   C     0.76143   0.84722   0.89005   0.00000  Uiso   1.00
C615   C     0.74125   0.85174   0.78576   0.00000  Uiso   1.00
C616   C     0.81191   0.93430   0.07845   0.00000  Uiso   1.00
C617   C     0.86058   0.93345   0.11000   0.00000  Uiso   1.00
C618   C     0.88575   0.97739   0.10631   0.00000  Uiso   1.00
C619   C     0.73419   0.90425   0.14832   0.00000  Uiso   1.00
C620   C     0.71752   0.87814   0.23864   0.00000  Uiso   1.00
C621   C     0.67726   0.89679   0.29379   0.00000  Uiso   1.00
H622   H     0.71807   0.00370   0.98708   0.00000  Uiso   1.00
H623   H     0.69755   0.96869   0.79442   0.00000  Uiso   1.00
H624   H     0.79668   0.05491   0.01436   0.00000  Uiso   1.00
H625   H     0.65364   0.99960   0.14296   0.00000  Uiso   1.00
H626   H     0.68484   0.91083   0.59582   0.00000  Uiso   1.00
H627   H     0.89386   0.09262   0.05960   0.00000  Uiso   1.00
H628   H     0.59224   0.97600   0.33080   0.00000  Uiso   1.00
H629   H     0.79530   0.85685   0.10272   0.00000  Uiso   1.00
H630   H     0.77902   0.81379   0.91641   0.00000  Uiso   1.00
H631   H     0.87815   0.90000   0.13634   0.00000  Uiso   1.00
H632   H     0.73511   0.84470   0.26495   0.00000  Uiso   1.00
H633   H     0.75096   0.78511   0.69483   0.00000  Uiso   1.00
H634   H     0.95999   0.96690   0.15861   0.00000  Uiso   1.00
H635   H     0.65836   0.85027   0.42981   0.00000  Uiso   1.00
O636   O     0.70581   0.82230   0.52066   0.00000  Uiso   1.00
O637   O     0.98004   0.06080   0.12914   0.00000  Uiso   1.00
O638   O     0.58431   0.90779   0.48494   0.00000  Uiso   1.00
N639   N     0.70263   0.88715   0.64470   0.00000  Uiso   1.00
N640   N     0.89805   0.05711   0.07829   0.00000  Uiso   1.00
N641   N     0.61607   0.94809   0.33185   0.00000  Uiso   1.00
N642   N     0.73821   0.81950   0.69797   0.00000  Uiso   1.00
N643   N     0.93364   0.98946   0.13156   0.00000  Uiso   1.00
N644   N     0.65165   0.88043   0.38513   0.00000  Uiso   1.00
C645   C     0.52995   0.23576   0.01357   0.00000  Uiso   1.00
C646   C     0.56933   0.23532   0.92493   0.00000  Uiso   1.00
C647   C     0.56476   0.21513   0.82073   0.00000  Uiso   1.00
C648   C     0.60497   0.21848   0.75167   0.00000  Uiso   1.00
C649   C     0.65954   0.21436   0.60885   0.00000  Uiso   1.00
C650   C     0.52249   0.28918   0.04442   0.00000  Uiso   1.00
C651   C     0.47853   0.31428   0.04069   0.00000  Uiso   1.00
C652   C     0.47932   0.36298   0.07222   0.00000  Uiso   1.00
C653   C     0.46116   0.44247   0.11497   0.00000  Uiso   1.00
C654   C     0.55254   0.21146   0.11429   0.00000  Uiso   1.00
C655   C     0.53384   0.17122   0.16932   0.00000  Uiso   1.00
C656   C     0.55992   0.15449   0.25970   0.00000  Uiso   1.00
C657   C     0.58842   0.11331   0.41093   0.00000  Uiso   1.00
C658   C     0.60950   0.27761   0.07622   0.00000  Uiso   1.00
C659   C     0.61254   0.25805   0.95897   0.00000  Uiso   1.00
C660   C     0.65278   0.26143   0.89005   0.00000  Uiso   1.00
C661   C     0.64826   0.24125   0.78576   0.00000  Uiso   1.00
C662   C     0.56570   0.31191   0.07845   0.00000  Uiso   1.00
C663   C     0.56655   0.36058   0.11000   0.00000  Uiso   1.00
C664   C     0.52261   0.38575   0.10631   0.00000  Uiso   1.00
C665   C     0.59575   0.23419   0.14832   0.00000  Uiso   1.00
C666   C     0.62186   0.21752   0.23864   0.00000  Uiso   1.00
C667   C     0.60321   0.17726   0.29379   0.00000  Uiso   1.00
H668   H     0.49630   0.21807   0.98708   0.00000  Uiso   1.00
H669   H     0.53131   0.19755   0.79442   0.00000  Uiso   1.00
H670   H     0.44509   0.29668   0.01436   0.00000  Uiso   1.00
H671   H     0.50040   0.15364   0.14296   0.00000  Uiso   1.00
H672   H     0.58917   0.18484   0.59582   0.00000  Uiso   1.00
H673   H     0.40738   0.39386   0.05960   0.00000  Uiso   1.00
H674   H     0.52400   0.09224   0.33080   0.00000  Uiso   1.00
H675   H     0.64315   0.29530   0.10272   0.00000  Uiso   1.00
H676   H     0.68621   0.27902   0.91641   0.00000  Uiso   1.00
H677   H     0.60000   0.37815   0.13634   0.00000  Uiso   1.00
H678   H     0.65530   0.23511   0.26495   0.00000  Uiso   1.00
H679   H     0.71489   0.25096   0.69483   0.00000  Uiso   1.00
H680   H     0.53310   0.45999   0.15861   0.00000  Uiso   1.00
H681   H     0.64973   0.15836   0.42981   0.00000  Uiso   1.00
O682   O     0.67770   0.20581   0.52066   0.00000  Uiso   1.00
O683   O     0.43920   0.48004   0.12914   0.00000  Uiso   1.00
O684   O     0.59221   0.08431   0.48494   0.00000  Uiso   1.00
N685   N     0.61285   0.20263   0.64470   0.00000  Uiso   1.00
N686   N     0.44289   0.39805   0.07829   0.00000  Uiso   1.00
N687   N     0.55191   0.11607   0.33185   0.00000  Uiso   1.00
N688   N     0.68050   0.23821   0.69797   0.00000  Uiso   1.00
N689   N     0.51054   0.43364   0.13156   0.00000  Uiso   1.00
N690   N     0.61957   0.15165   0.38513   0.00000  Uiso   1.00
C691   C     0.47005   0.76424   0.01357   0.00000  Uiso   1.00
C692   C     0.43067   0.76468   0.92493   0.00000  Uiso   1.00
C693   C     0.43524   0.78487   0.82073   0.00000  Uiso   1.00
C694   C     0.39503   0.78152   0.75167   0.00000  Uiso   1.00
C695   C     0.34046   0.78564   0.60885   0.00000  Uiso   1.00
C696   C     0.47751   0.71082   0.04442   0.00000  Uiso   1.00
C697   C     0.52147   0.68572   0.04069   0.00000  Uiso   1.00
C698   C     0.52068   0.63702   0.07222   0.00000  Uiso   1.00
C699   C     0.53884   0.55753   0.11497   0.00000  Uiso   1.00
C700   C     0.44746   0.78854   0.11429   0.00000  Uiso   1.00
C701   C     0.46616   0.82878   0.16932   0.00000  Uiso   1.00
C702   C     0.44008   0.84551   0.25970   0.00000  Uiso   1.00
C703   C     0.41158   0.88669   0.41093   0.00000  Uiso   1.00
C704   C     0.39050   0.72239   0.07622   0.00000  Uiso   1.00
C705   C     0.38746   0.74195   0.95897   0.00000  Uiso   1.00
C706   C     0.34722   0.73857   0.89005   0.00000  Uiso   1.00
C707   C     0.35174   0.75875   0.78576   0.00000  Uiso   1.00
C708   C     0.43430   0.68809   0.07845   0.00000  Uiso   1.00
C709   C     0.43345   0.63942   0.11000   0.00000  Uiso   1.00
C710   C     0.47739   0.61425   0.10631   0.00000  Uiso   1.00
C711   C     0.40425   0.76581   0.14832   0.00000  Uiso   1.00
C712   C     0.37814   0.78248   0.23864   0.00000  Uiso   1.00
C713   C     0.39679   0.82274   0.29379   0.00000  Uiso   1.00
H714   H     0.50370   0.78193   0.98708   0.00000  Uiso   1.00
H715   H     0.46869   0.80245   0.79442   0.00000  Uiso   1.00
H716   H     0.55491   0.70332   0.01436   0.00000  Uiso   1.00
H717   H     0.49960   0.84636   0.14296   0.00000  Uiso   1.00
H718   H     0.41083   0.81516   0.59582   0.00000  Uiso   1.00
H719   H     0.59262   0.60614   0.05960   0.00000  Uiso   1.00
H720   H     0.47600   0.90776   0.33080   0.00000  Uiso   1.00
H721   H     0.35685   0.70470   0.10272   0.00000  Uiso   1.00
H722   H     0.31379   0.72098   0.91641   0.00000  Uiso   1.00
H723   H     0.40000   0.62185   0.13634   0.00000  Uiso   1.00
H724   H     0.34470   0.76489   0.26495   0.00000  Uiso   1.00
H725   H     0.28511   0.74904   0.69483   0.00000  Uiso   1.00
H726   H     0.46690   0.54001   0.15861   0.00000  Uiso   1.00
H727   H     0.35027   0.84164   0.42981   0.00000  Uiso   1.00
O728   O     0.32230   0.79419   0.52066   0.00000  Uiso   1.00
O729   O     0.56080   0.51996   0.12914   0.00000  Uiso   1.00
O730   O     0.40779   0.91569   0.48494   0.00000  Uiso   1.00
N731   N     0.38715   0.79737   0.64470   0.00000  Uiso   1.00
N732   N     0.55711   0.60195   0.07829   0.00000  Uiso   1.00
N733   N     0.44809   0.88393   0.33185   0.00000  Uiso   1.00
N734   N     0.31950   0.76179   0.69797   0.00000  Uiso   1.00
N735   N     0.48946   0.56636   0.13156   0.00000  Uiso   1.00
N736   N     0.38043   0.84835   0.38513   0.00000  Uiso   1.00
