data_ttbi_sub
_audit_creation_date              2017-03-21
_audit_creation_method
;
Olex2 1.2
(compiled 2017.03.02 svn.r3394 for OlexSys, GUI svn.r5324)
;
_shelx_SHELXL_version_number      '2016/6'
_publ_contact_author_address      ?
_publ_contact_author_email        ?
_publ_contact_author_id_orcid     ?
_publ_contact_author_name         ''
_publ_contact_author_phone        ?
_publ_section_references
;
Burla, M.C., Caliandro, R., Camalli, M., Carrozzini, B., Cascarano, G.L.,
 De Caro, L., Giacovazzo, C., Polidori, G., Siliqi, D., Spagna, R.
 (2007). J. Appl. Cryst. 40, 609-613.

Dolomanov, O.V., Bourhis, L.J., Gildea, R.J, Howard, J.A.K. & Puschmann, H.
 (2009), J. Appl. Cryst. 42, 339-341.

Sheldrick, G.M. (2015). Acta Cryst. C71, 3-8.
;
_chemical_name_common             ?
_chemical_name_systematic         ?
_chemical_formula_moiety          'C23 H14 N6 O3'
_chemical_formula_sum             'C23 H14 N6 O3'
_chemical_formula_weight          422.40
_chemical_melting_point           ?
loop_
  _atom_type_symbol
  _atom_type_description
  _atom_type_scat_dispersion_real
  _atom_type_scat_dispersion_imag
  _atom_type_scat_source
 'C' 'C' 0.0033 0.0016 'International Tables Vol C Tables 4.2.6.8 and 6.1.1.4'
 'H' 'H' 0.0000 0.0000 'International Tables Vol C Tables 4.2.6.8 and 6.1.1.4'
 'N' 'N' 0.0061 0.0033 'International Tables Vol C Tables 4.2.6.8 and 6.1.1.4'
 'O' 'O' 0.0106 0.0060 'International Tables Vol C Tables 4.2.6.8 and 6.1.1.4'

_shelx_space_group_comment
;
The symmetry employed for this shelxl refinement is uniquely defined
by the following loop, which should always be used as a source of
symmetry information in preference to the above space-group names.
They are only intended as comments.
;
_space_group_crystal_system       'hexagonal'
_space_group_IT_number            176
_space_group_name_H-M_alt         'P 63/m'
_space_group_name_Hall            '-P 6c'
loop_
  _space_group_symop_operation_xyz
 'x, y, z'
 'x-y, x, z+1/2'
 '-y, x-y, z'
 '-x, -y, z+1/2'
 '-x+y, -x, z'
 'y, -x+y, z+1/2'
 '-x, -y, -z'
 '-x+y, -x, -z-1/2'
 'y, -x+y, -z'
 'x, y, -z-1/2'
 'x-y, x, -z'
 '-y, x-y, -z-1/2'

_cell_length_a                    12.6079(11)
_cell_length_b                    12.6079(11)
_cell_length_c                    7.4937(7)
_cell_angle_alpha                 90
_cell_angle_beta                  90
_cell_angle_gamma                 120
_cell_volume                      1031.6(2)
_cell_formula_units_Z             2
_cell_measurement_reflns_used     3071
_cell_measurement_temperature     100
_cell_measurement_theta_max       28.31
_cell_measurement_theta_min       3.23
_shelx_estimated_absorpt_T_max    0.996
_shelx_estimated_absorpt_T_min    0.993
_exptl_absorpt_coefficient_mu     0.095
_exptl_absorpt_correction_T_max   0.7457
_exptl_absorpt_correction_T_min   0.4975
_exptl_absorpt_correction_type    multi-scan
_exptl_absorpt_process_details
'SADABS-2014/5 (Bruker,2014/5) was used for absorption correction. wR2(int) was 0.0889 before and 0.0693 after correction. The Ratio of minimum to maximum transmission is 0.6672. The \l/2 correction factor is Not present.'
_exptl_absorpt_special_details    ?
_exptl_crystal_colour             colourless
_exptl_crystal_colour_primary     colourless
_exptl_crystal_density_diffrn     1.360
_exptl_crystal_density_meas       ?
_exptl_crystal_density_method     ?
_exptl_crystal_description        prism
_exptl_crystal_F_000              436
_exptl_crystal_size_max           0.07
_exptl_crystal_size_mid           0.05
_exptl_crystal_size_min           0.04
_exptl_transmission_factor_max    ?
_exptl_transmission_factor_min    ?
_diffrn_reflns_av_R_equivalents   0.0533
_diffrn_reflns_av_unetI/netI      0.0299
_diffrn_reflns_Laue_measured_fraction_full 1.000
_diffrn_reflns_Laue_measured_fraction_max 1.000
_diffrn_reflns_limit_h_max        16
_diffrn_reflns_limit_h_min        -15
_diffrn_reflns_limit_k_max        16
_diffrn_reflns_limit_k_min        -16
_diffrn_reflns_limit_l_max        9
_diffrn_reflns_limit_l_min        -9
_diffrn_reflns_number             7438
_diffrn_reflns_point_group_measured_fraction_full 1.000
_diffrn_reflns_point_group_measured_fraction_max 1.000
_diffrn_reflns_theta_full         25.242
_diffrn_reflns_theta_max          27.995
_diffrn_reflns_theta_min          1.865
_diffrn_ambient_temperature       100.15
_diffrn_detector                  CCD
_diffrn_detector_area_resol_mean  28.5714
_diffrn_detector_type             'Rigaku Saturn724+'
_diffrn_measured_fraction_theta_full 1.000
_diffrn_measured_fraction_theta_max 1.000
_diffrn_measurement_device        'AFC12 (Right): Kappa 3 circle'
_diffrn_measurement_device_type   'Rigaku Saturn724+ (2x2 bin mode)'
_diffrn_measurement_method        '\f and \w scans'
_diffrn_measurement_specimen_support 'Mitegen 50um'
_diffrn_radiation_collimation     0.3
_diffrn_radiation_monochromator   Confocal
_diffrn_radiation_probe           x-ray
_diffrn_radiation_type            MoK\a
_diffrn_radiation_wavelength      0.71073
_diffrn_source                    'Rotating Anode'
_diffrn_source_current            24.0
_diffrn_source_power              1.2
_diffrn_source_target             Mo
_diffrn_source_type               'Rotating Anode'
_diffrn_source_voltage            50.0
_diffrn_standards_number          0
_reflns_Friedel_coverage          0.000
_reflns_Friedel_fraction_full     .
_reflns_Friedel_fraction_max      .
_reflns_number_gt                 751
_reflns_number_total              892
_reflns_special_details
;
 Reflections were merged by SHELXL according to the crystal
 class for the calculation of statistics and refinement.
 
 _reflns_Friedel_fraction is defined as the number of unique
 Friedel pairs measured divided by the number that would be
 possible theoretically, ignoring centric projections and
 systematic absences.
;
_reflns_threshold_expression      'I > 2\s(I)'
_computing_cell_refinement        'SAINT v8.37A (Bruker, 2015)'
_computing_data_collection
;
CrystalClear-SM Expert 2.0 r7 (Rigaku, 2011)
;
_computing_data_reduction         'SAINT v8.37A (Bruker, 2015)'
_computing_molecular_graphics     'Olex2 (Dolomanov et al., 2009)'
_computing_publication_material   'Olex2 (Dolomanov et al., 2009)'
_computing_structure_refinement   'ShelXL (Sheldrick, 2015)'
_computing_structure_solution     'SIR2004 (Burla et al., 2007)'
_refine_diff_density_max          0.304
_refine_diff_density_min          -0.325
_refine_diff_density_rms          0.046
_refine_ls_extinction_coef        .
_refine_ls_extinction_method      none
_refine_ls_goodness_of_fit_ref    1.053
_refine_ls_hydrogen_treatment     constr
_refine_ls_matrix_type            full
_refine_ls_number_parameters      52
_refine_ls_number_reflns          892
_refine_ls_number_restraints      0
_refine_ls_R_factor_all           0.0444
_refine_ls_R_factor_gt            0.0356
_refine_ls_restrained_S_all       1.053
_refine_ls_shift/su_max           0.001
_refine_ls_shift/su_mean          0.000
_refine_ls_structure_factor_coef  Fsqd
_refine_ls_weighting_details
'w=1/[\s^2^(Fo^2^)+(0.0488P)^2^+0.3505P] where P=(Fo^2^+2Fc^2^)/3'
_refine_ls_weighting_scheme       calc
_refine_ls_wR_factor_gt           0.0947
_refine_ls_wR_factor_ref          0.0987
_refine_special_details           ?
_olex2_refinement_description
;
1. Fixed Uiso
 At 1.2 times of:
  All C(H) groups, All N(H) groups
2.a Ternary CH refined with riding coordinates:
 C1(H1A)
2.b Aromatic/amide H refined with riding coordinates:
 N1(H1), C3(H3)
;
_atom_sites_solution_hydrogens    geom
_atom_sites_solution_primary      direct
_atom_sites_solution_secondary    ?
loop_
  _atom_site_label
  _atom_site_type_symbol
  _atom_site_fract_x
  _atom_site_fract_y
  _atom_site_fract_z
  _atom_site_U_iso_or_equiv
  _atom_site_adp_type
  _atom_site_occupancy
  _atom_site_site_symmetry_order
  _atom_site_calc_flag
  _atom_site_refinement_flags_posn
  _atom_site_refinement_flags_adp
  _atom_site_refinement_flags_occupancy
  _atom_site_disorder_assembly
  _atom_site_disorder_group
 O1 O 0.96167(10) 0.14324(10) 0.250000 0.0179(3) Uani 1 2 d S T P . .
 N1 N 0.77888(8) 0.01102(8) 0.39670(13) 0.0154(3) Uani 1 1 d . . . . .
 H1 H 0.802805 0.030434 0.508131 0.019 Uiso 1 1 calc R . . . .
 C1 C 0.333333 -0.333333 0.4224(3) 0.0152(4) Uani 1 3 d S T P . .
 H1A H 0.333333 -0.333332 0.555801 0.018 Uiso 1 3 calc RS T P . .
 C4 C 0.66127(10) -0.07669(10) 0.34302(15) 0.0151(3) Uani 1 1 d . . . . .
 C2 C 0.45516(10) -0.23625(10) 0.34386(15) 0.0152(3) Uani 1 1 d . . . . .
 C3 C 0.55800(10) -0.15578(10) 0.44117(16) 0.0156(3) Uani 1 1 d . . . . .
 H3 H 0.557820 -0.154819 0.567931 0.019 Uiso 1 1 calc R . . . .
 C5 C 0.85154(15) 0.06242(14) 0.250000 0.0151(3) Uani 1 2 d S T P . .

loop_
  _atom_site_aniso_label
  _atom_site_aniso_U_11
  _atom_site_aniso_U_22
  _atom_site_aniso_U_33
  _atom_site_aniso_U_23
  _atom_site_aniso_U_13
  _atom_site_aniso_U_12
 O1 0.0161(6) 0.0186(6) 0.0155(6) 0.000 0.000 0.0060(5)
 N1 0.0159(5) 0.0159(5) 0.0120(5) 0.0001(4) 0.0000(4) 0.0061(4)
 C1 0.0162(6) 0.0162(6) 0.0132(8) 0.000 0.000 0.0081(3)
 C4 0.0159(5) 0.0154(5) 0.0150(6) -0.0010(4) -0.0013(4) 0.0085(4)
 C2 0.0164(5) 0.0151(5) 0.0157(6) 0.0001(4) 0.0008(4) 0.0090(4)
 C3 0.0181(5) 0.0171(5) 0.0126(5) -0.0001(4) 0.0001(4) 0.0097(5)
 C5 0.0179(8) 0.0153(7) 0.0137(8) 0.000 0.000 0.0094(6)

_geom_special_details
;
 All esds (except the esd in the dihedral angle between two l.s. planes)
 are estimated using the full covariance matrix.  The cell esds are taken
 into account individually in the estimation of esds in distances, angles
 and torsion angles; correlations between esds in cell parameters are only
 used when they are defined by crystal symmetry.  An approximate (isotropic)
 treatment of cell esds is used for estimating esds involving l.s. planes.
;
loop_
  _geom_bond_atom_site_label_1
  _geom_bond_atom_site_label_2
  _geom_bond_distance
  _geom_bond_site_symmetry_2
  _geom_bond_publ_flag
 O1 C5 1.246(2) . ?
 N1 H1 0.8800 . ?
 N1 C4 1.3942(14) . ?
 N1 C5 1.3689(13) . ?
 C1 H1A 1.0000 . ?
 C1 C2 1.5243(13) . ?
 C1 C2 1.5242(13) 3_545 ?
 C1 C2 1.5243(13) 5_655 ?
 C4 C4 1.394(2) 10_556 ?
 C4 C3 1.3900(15) . ?
 C2 C2 1.407(2) 10_556 ?
 C2 C3 1.3881(15) . ?
 C3 H3 0.9500 . ?

loop_
  _geom_angle_atom_site_label_1
  _geom_angle_atom_site_label_2
  _geom_angle_atom_site_label_3
  _geom_angle
  _geom_angle_site_symmetry_1
  _geom_angle_site_symmetry_3
  _geom_angle_publ_flag
 C4 N1 H1 125.1 . . ?
 C5 N1 H1 125.1 . . ?
 C5 N1 C4 109.78(10) . . ?
 C2 C1 H1A 112.7 . . ?
 C2 C1 H1A 112.7 3_545 . ?
 C2 C1 H1A 112.7 5_655 . ?
 C2 C1 C2 106.06(9) 3_545 5_655 ?
 C2 C1 C2 106.06(9) 3_545 . ?
 C2 C1 C2 106.06(9) . 5_655 ?
 N1 C4 C4 106.77(6) . 10_556 ?
 C3 C4 N1 131.27(11) . . ?
 C3 C4 C4 121.95(7) . 10_556 ?
 C2 C2 C1 112.70(8) 10_556 . ?
 C3 C2 C1 125.60(11) . . ?
 C3 C2 C2 121.69(7) . 10_556 ?
 C4 C3 H3 121.8 . . ?
 C2 C3 C4 116.35(10) . . ?
 C2 C3 H3 121.8 . . ?
 O1 C5 N1 126.56(7) . . ?
 O1 C5 N1 126.56(7) . 10_556 ?
 N1 C5 N1 106.84(14) . 10_556 ?

_shelx_res_file
;
TITL TTBI_Sub in P6(3)/m
    ttbi_sub.res
    created by SHELXL-2016/6 at 11:41:19 on 21-Mar-2017
REM TTBI_Sub in P6(3)/m
REM 52 parameters refined using 0 restraints
REM Highest difference peak 0.303, deepest hole -0.325, 1-sigma level 0.046
CELL 0.71073 12.6079 12.6079 7.4937 90 90 120
ZERR 2 0.0011 0.0011 0.0007 0 0 0
LATT 1
SYMM -Y+X,+X,0.5+Z
SYMM -Y,+X-Y,+Z
SYMM -X,-Y,0.5+Z
SYMM +Y-X,-X,+Z
SYMM +Y,-X+Y,0.5+Z
SFAC C H N O
UNIT 46 28 12 6

L.S. 4 0 0
PLAN  20
SIZE 0.07 0.05 0.04
TEMP -173
GRID
BOND $H
fmap 2
acta
MERG 2
OMIT 0 56
REM <olex2.extras>
REM <HklSrc "%.\\TTBI_Sub.hkl">
REM </olex2.extras>

WGHT    0.048800    0.350500
FVAR       0.31239
O1    4    0.961673    0.143243    0.250000    10.50000    0.01611    0.01860 =
         0.01546    0.00000    0.00000    0.00598
N1    3    0.778876    0.011024    0.396696    11.00000    0.01591    0.01588 =
         0.01195    0.00006    0.00005    0.00606
AFIX  43
H1    2    0.802805    0.030434    0.508131    11.00000   -1.20000
AFIX   0
C1    1    0.333333   -0.333333    0.422355    10.33333    0.01615    0.01615 =
         0.01316    0.00000    0.00000    0.00808
AFIX  13
H1A   2    0.333333   -0.333332    0.555801    10.33333   -1.20000
AFIX   0
C4    1    0.661265   -0.076691    0.343019    11.00000    0.01589    0.01537 =
         0.01504   -0.00099   -0.00128    0.00849
C2    1    0.455158   -0.236248    0.343855    11.00000    0.01637    0.01507 =
         0.01568    0.00014    0.00077    0.00901
C3    1    0.558001   -0.155782    0.441171    11.00000    0.01813    0.01712 =
         0.01264   -0.00011    0.00015    0.00970
AFIX  43
H3    2    0.557820   -0.154819    0.567931    11.00000   -1.20000
AFIX   0
C5    1    0.851540    0.062420    0.250000    10.50000    0.01785    0.01534 =
         0.01366    0.00000    0.00000    0.00938
HKLF 4




REM  TTBI_Sub in P6(3)/m
REM R1 =  0.0356 for     751 Fo > 4sig(Fo)  and  0.0444 for all     892 data
REM     52 parameters refined using      0 restraints

END

WGHT      0.0496      0.3455

REM Highest difference peak  0.304,  deepest hole -0.325,  1-sigma level  0.046
Q1    1   0.6579 -0.0879  0.2500  10.50000  0.05    0.30
Q2    1   0.4572 -0.2324  0.2500  10.50000  0.05    0.27
Q3    1   0.2787 -0.3293  0.3892  11.00000  0.05    0.23
Q4    1   0.6071 -0.1167  0.3863  11.00000  0.05    0.21
Q5    1   0.3333 -0.3333  0.7500  10.16667  0.05    0.21
Q6    1   0.8190  0.0003  0.4920  11.00000  0.05    0.21
Q7    1   0.8167  0.0408  0.3237  11.00000  0.05    0.21
Q8    1   0.5084 -0.2092  0.3902  11.00000  0.05    0.20
Q9    1   0.4022 -0.1339  0.7500  10.50000  0.05    0.16
Q10   1   0.7098 -0.0384  0.3728  11.00000  0.05    0.14
Q11   1   0.9237  0.2201  0.2500  10.50000  0.05    0.12
Q12   1   0.8098  0.1436  0.2500  10.50000  0.05    0.11
Q13   1   1.0012  0.0560  0.2500  10.50000  0.05    0.11
Q14   1   0.9906  0.1649  0.3633  11.00000  0.05    0.11
Q15   1   0.6629  0.0252  0.7500  10.50000  0.05    0.10
Q16   1   0.7214  0.0560  0.6361  11.00000  0.05    0.10
Q17   1   0.7600  0.0906  0.5118  11.00000  0.05    0.10
Q18   1   0.9346  0.1591  0.1386  11.00000  0.05    0.10
Q19   1   0.4311 -0.1684  0.2500  10.50000  0.05    0.09
Q20   1   0.4623 -0.1183  0.6352  11.00000  0.05    0.09
;
_shelx_res_checksum               10498
_shelx_hkl_file
;
  -2   0  -9   -0.56    0.55
  -1   0  -9    0.78    0.60
   0   0  -9    0.54    0.60
   1   0  -9   -0.03    0.59
   2   0  -9   -0.45    0.60
   3   0  -9    6.91    1.10
   4   0  -9    9.94    1.39
  -3   1  -9    8.46    1.10
  -2   1  -9   -0.26    0.54
  -1   1  -9    0.79    0.63
   0   1  -9   -0.62    0.58
   1   1  -9   -0.34    0.60
   2   1  -9   -1.54    0.59
   3   1  -9    0.58    0.76
   4   1  -9    3.50    0.99
   5   1  -9    2.62    0.91
  -5   2  -9   13.08    1.54
  -4   2  -9    1.47    0.70
  -3   2  -9   -0.18    0.60
  -2   2  -9   -0.73    0.58
  -1   2  -9    1.59    0.72
   0   2  -9   -0.54    0.64
   1   2  -9    6.56    1.18
   2   2  -9    1.71    0.80
   3   2  -9    8.17    1.25
   4   2  -9    0.49    0.75
   5   2  -9   -0.68    0.73
  -6   3  -9   14.46    1.71
  -5   3  -9    6.04    1.01
  -4   3  -9   -0.21    0.63
  -3   3  -9    6.91    1.07
  -2   3  -9    8.09    1.16
  -1   3  -9   -0.30    0.61
   0   3  -9    8.19    1.15
   1   3  -9    8.20    1.20
   2   3  -9   12.30    1.66
   3   3  -9   19.63    1.96
   4   3  -9    0.40    0.80
  -7   4  -9    1.01    0.64
  -6   4  -9    3.24    0.80
  -5   4  -9    2.29    0.81
  -4   4  -9    7.35    1.24
  -3   4  -9    6.77    1.15
  -2   4  -9    1.87    0.83
  -1   4  -9    0.10    0.78
   0   4  -9    6.32    1.24
   1   4  -9   -0.11    0.78
   2   4  -9    2.82    0.90
   3   4  -9   -0.55    0.77
  -7   5  -9   -0.29    0.60
  -6   5  -9    1.74    0.75
  -5   5  -9   19.11    2.03
  -4   5  -9    1.30    0.71
  -3   5  -9   13.32    1.64
  -2   5  -9    5.22    1.09
  -1   5  -9    4.62    1.03
   0   5  -9   19.11    2.03
   1   5  -9    1.40    0.80
   2   5  -9    0.66    0.84
  -6   6  -9   -0.43    0.60
  -5   6  -9    2.02    0.76
  -4   6  -9    1.45    0.74
  -2   6  -9    1.84    0.80
  -1   6  -9    1.37    0.86
   0   6  -9   -0.58    0.75
  -5   7  -9    0.00    0.74
  -4   7  -9    0.29    0.69
  -3   7  -9    0.39    0.70
  -2   7  -9   -0.42    0.67
   0  -2  -8   -0.02    0.47
   1  -2  -8   -0.01    0.45
   2  -2  -8   -0.05    0.45
   3  -2  -8   52.67    3.91
   4  -2  -8    7.33    0.97
   5  -2  -8    0.94    0.70
   6  -2  -8    9.21    1.19
   7  -2  -8    5.33    1.06
  -1  -1  -8    0.35    0.49
   0  -1  -8   35.32    2.97
   1  -1  -8   36.32    3.14
   2  -1  -8   -0.24    0.51
   3  -1  -8    2.70    0.70
   4  -1  -8   -0.14    0.59
   5  -1  -8   10.01    1.26
   6  -1  -8   14.80    1.56
   7  -1  -8    0.54    0.79
   8  -1  -8   -0.11    0.80
   9  -1  -8   -0.57    0.73
  -3   0  -8    2.88    0.67
  -2   0  -8   -0.20    0.49
  -1   0  -8   37.04    3.15
   0   0  -8    6.62    0.95
   1   0  -8   34.93    3.02
   2   0  -8   -0.67    0.55
   3   0  -8    1.56    0.72
   4   0  -8    4.60    0.93
   5   0  -8   14.93    1.65
   6   0  -8    0.22    0.76
   7   0  -8   12.12    1.58
   8   0  -8    3.08    0.95
  -4   1  -8   -0.36    0.52
  -3   1  -8    2.83    0.68
  -2   1  -8    0.43    0.56
  -1   1  -8   36.70    3.05
   0   1  -8   38.51    3.21
   1   1  -8    0.01    0.61
   2   1  -8   48.13    3.91
   3   1  -8   -0.49    0.63
   4   1  -8    0.58    0.75
   5   1  -8   10.00    1.38
   6   1  -8   -0.89    0.73
   7   1  -8   -0.28    0.75
   8   1  -8   -0.27    0.85
  -5   2  -8    0.45    0.61
  -4   2  -8    6.12    0.94
  -3   2  -8   44.54    3.83
  -2   2  -8   -0.41    0.54
  -1   2  -8    0.54    0.62
   0   2  -8   -0.30    0.64
   1   2  -8    3.31    0.85
   2   2  -8    6.87    1.06
   3   2  -8   -0.27    0.69
   4   2  -8    8.21    1.23
   5   2  -8    1.37    0.78
   6   2  -8    2.07    0.88
   7   2  -8    5.60    1.06
  -6   3  -8    0.31    0.62
  -5   3  -8    0.31    0.55
  -4   3  -8    0.41    0.63
  -3   3  -8    2.63    0.72
  -2   3  -8    2.31    0.73
  -1   3  -8   45.64    4.02
   0   3  -8    3.58    0.87
   1   3  -8    0.43    0.71
   2   3  -8    1.76    0.74
   3   3  -8    1.50    0.81
   4   3  -8    4.13    1.03
   5   3  -8   -0.46    0.68
   6   3  -8   11.72    1.56
  -7   4  -8    2.95    0.81
  -6   4  -8    8.49    1.19
  -5   4  -8    0.90    0.66
  -4   4  -8    3.37    0.80
  -3   4  -8   -0.24    0.62
  -2   4  -8    6.31    1.03
  -1   4  -8    0.49    0.66
   0   4  -8    2.49    0.89
   1   4  -8    9.55    1.32
   2   4  -8    8.24    1.23
   3   4  -8    0.20    0.70
   4   4  -8    0.14    0.78
   5   4  -8    0.12    0.77
   6   4  -8    0.54    0.80
  -8   5  -8    0.56    0.60
  -7   5  -8    2.77    0.74
  -6   5  -8    9.57    1.26
  -5   5  -8   13.13    1.63
  -4   5  -8    8.08    1.23
  -3   5  -8    1.46    0.71
  -2   5  -8    0.56    0.70
  -1   5  -8    0.38    0.67
   0   5  -8   16.30    1.78
   1   5  -8   13.27    1.55
   2   5  -8    3.90    0.92
   3   5  -8   14.99    1.75
   4   5  -8    1.40    0.81
   5   5  -8    1.46    0.81
  -9   6  -8   12.05    1.52
  -8   6  -8   -0.03    0.66
  -7   6  -8    0.72    0.64
  -6   6  -8   -0.93    0.58
  -5   6  -8    8.79    1.39
  -4   6  -8    6.61    1.14
  -3   6  -8    0.75    0.69
  -2   6  -8    8.95    1.39
  -1   6  -8    9.61    1.42
   0   6  -8   -0.06    0.64
   1   6  -8    0.45    0.67
   2   6  -8    0.35    0.75
   3   6  -8    0.66    0.72
   4   6  -8    0.83    0.76
  -9   7  -8    2.44    0.80
  -8   7  -8    0.73    0.64
  -7   7  -8   11.86    1.52
  -6   7  -8    0.24    0.66
  -5   7  -8    3.98    0.91
  -4   7  -8    0.25    0.64
  -3   7  -8    3.96    0.96
  -2   7  -8   -0.21    0.65
  -1   7  -8    1.09    0.71
   0   7  -8   11.93    1.57
   1   7  -8    1.63    0.78
   2   7  -8    2.33    0.91
  -9   8  -8   -0.36    0.60
  -8   8  -8    3.56    0.87
  -7   8  -8    0.45    0.70
  -6   8  -8    0.66    0.69
  -5   8  -8   12.13    1.62
  -4   8  -8    0.63    0.68
  -3   8  -8    0.32    0.68
  -2   8  -8    1.35    0.76
  -1   8  -8   -0.45    0.69
   0   8  -8    2.89    0.89
   1   8  -8    0.81    0.74
  -8   9  -8   -0.09    0.64
  -7   9  -8    1.32    0.74
  -6   9  -8    2.39    0.84
  -5   9  -8    1.37    0.80
  -4   9  -8   -0.25    0.70
  -3   9  -8   11.81    1.58
  -2   9  -8    1.96    0.86
  -1   9  -8    0.03    0.68
  -6  10  -8    1.76    0.79
  -5  10  -8    1.39    0.78
  -4  10  -8    0.84    0.75
   3  -4  -7    0.07    0.28
   4  -4  -7   12.07    1.06
   5  -4  -7    3.11    0.50
   6  -4  -7   11.61    1.10
   7  -4  -7   16.31    1.46
   8  -4  -7    3.34    0.80
   9  -4  -7   20.60    2.36
   1  -3  -7   35.54    2.58
   2  -3  -7    8.66    0.83
   3  -3  -7    4.84    0.60
   4  -3  -7   37.74    2.96
   5  -3  -7   45.23    3.23
   7  -3  -7   13.04    1.35
   8  -3  -7   24.12    2.16
   9  -3  -7    4.06    0.88
  10  -3  -7    9.10    1.35
  11  -3  -7    2.98    0.94
   0  -2  -7   19.76    1.76
   1  -2  -7    0.55    0.64
   2  -2  -7   17.82    1.75
   3  -2  -7   32.94    2.60
   4  -2  -7    1.13    0.54
   5  -2  -7    4.02    0.76
   6  -2  -7   -0.35    0.59
   7  -2  -7   15.42    1.70
   8  -2  -7   15.91    1.75
   9  -2  -7   -0.43    0.64
  10  -2  -7    2.40    0.91
  11  -2  -7    6.65    1.18
  -2  -1  -7   28.76    2.61
  -1  -1  -7    0.56    0.45
   0  -1  -7   12.36    1.26
   1  -1  -7   14.71    1.35
   2  -1  -7    0.28    0.47
   3  -1  -7   10.15    1.07
   4  -1  -7    0.55    0.57
   5  -1  -7    3.17    0.76
   6  -1  -7    2.17    0.74
   7  -1  -7   21.56    2.11
   8  -1  -7    7.44    1.12
   9  -1  -7   18.13    1.97
  10  -1  -7    1.36    0.80
  -3   0  -7    4.14    0.72
  -2   0  -7   16.80    1.76
  -1   0  -7   12.50    1.36
   0   0  -7    0.44    0.48
   1   0  -7   11.97    1.32
   2   0  -7   21.14    1.89
   3   0  -7    5.93    0.86
   4   0  -7   11.95    1.31
   5   0  -7    9.30    1.22
   6   0  -7    0.91    0.66
   7   0  -7    0.58    0.66
   8   0  -7   20.43    2.02
   9   0  -7    7.43    1.18
  10   0  -7    0.53    0.78
  -4   1  -7    0.07    0.48
  -3   1  -7    6.57    0.96
  -2   1  -7   -0.12    0.51
  -1   1  -7   12.00    1.31
   0   1  -7   12.83    1.44
   1   1  -7    0.11    0.51
   2   1  -7   29.23    2.69
   3   1  -7   35.36    2.95
   4   1  -7    1.34    0.68
   5   1  -7   -0.48    0.57
   6   1  -7   24.31    2.23
   7   1  -7    3.42    0.92
   8   1  -7    3.60    0.99
   9   1  -7    0.97    0.80
  -5   2  -7    3.08    0.75
  -4   2  -7   -0.19    0.55
  -3   2  -7   25.59    2.65
  -2   2  -7   17.74    1.84
  -1   2  -7   -0.96    0.52
   0   2  -7   17.20    1.87
   1   2  -7    9.11    1.10
   2   2  -7    0.16    0.65
   3   2  -7   38.95    3.12
   4   2  -7    8.54    1.18
   5   2  -7   -0.15    0.62
   6   2  -7   -0.14    0.62
   7   2  -7    2.57    0.89
   8   2  -7    2.14    0.79
   9   2  -7    4.12    0.96
  -6   3  -7   44.61    4.02
  -5   3  -7   33.90    3.04
  -4   3  -7   30.63    2.87
  -3   3  -7    2.84    0.80
  -2   3  -7    6.55    1.03
  -1   3  -7   26.47    2.67
   0   3  -7    2.73    0.83
   1   3  -7    0.29    0.65
   2   3  -7    3.81    0.86
   3   3  -7   46.65    4.08
   4   3  -7   11.66    1.42
   5   3  -7    2.34    0.78
   6   3  -7    8.46    1.24
   7   3  -7   26.55    2.42
   8   3  -7    7.72    1.24
  -7   4  -7   11.10    1.39
  -6   4  -7    8.40    1.12
  -5   4  -7    0.81    0.62
  -4   4  -7    9.09    1.21
  -3   4  -7    0.13    0.58
  -2   4  -7    0.47    0.63
  -1   4  -7   32.59    3.10
   0   4  -7   10.37    1.38
   1   4  -7    2.67    0.79
   2   4  -7   -0.32    0.67
   3   4  -7    8.34    1.28
   4   4  -7    2.49    0.80
   5   4  -7   -0.10    0.65
   6   4  -7    4.75    1.03
   7   4  -7    0.06    0.68
  -8   5  -7    2.35    0.74
  -7   5  -7   -0.04    0.57
  -6   5  -7    1.47    0.66
  -5   5  -7    9.00    1.22
  -4   5  -7    2.97    0.77
  -3   5  -7    2.83    0.77
  -2   5  -7   32.35    3.30
  -1   5  -7    3.56    0.85
   0   5  -7    7.14    1.20
   1   5  -7    0.54    0.72
   2   5  -7   14.09    1.77
   3   5  -7   17.69    1.99
   4   5  -7   13.04    1.53
   5   5  -7    2.46    0.80
   6   5  -7   -0.64    0.62
  -9   6  -7   10.58    1.33
  -8   6  -7   -0.07    0.65
  -7   6  -7   21.83    2.21
  -6   6  -7    1.91    0.71
  -5   6  -7    0.56    0.62
  -4   6  -7   -0.77    0.58
  -3   6  -7   44.54    4.21
  -2   6  -7    7.79    1.26
  -1   6  -7    0.17    0.72
   0   6  -7    2.66    0.82
   1   6  -7   19.35    2.21
   2   6  -7   12.83    1.71
   3   6  -7    3.76    0.90
   4   6  -7   -0.02    0.66
   5   6  -7    1.03    0.71
   6   6  -7    7.42    1.20
 -10   7  -7   21.15    2.31
  -9   7  -7    3.73    0.91
  -8   7  -7    3.68    0.88
  -7   7  -7    0.04    0.66
  -6   7  -7   17.56    2.12
  -5   7  -7   13.61    1.75
  -4   7  -7    9.53    1.39
  -3   7  -7   10.88    1.54
  -2   7  -7    0.39    0.65
  -1   7  -7   21.16    2.31
   0   7  -7   -0.12    0.66
   1   7  -7    4.78    1.02
   2   7  -7   -0.11    0.75
   3   7  -7   10.08    1.37
   4   7  -7    0.69    0.71
 -10   8  -7    0.96    0.70
  -9   8  -7    4.77    0.96
  -8   8  -7   16.57    2.03
  -7   8  -7    4.90    1.04
  -6   8  -7   13.67    1.75
  -5   8  -7   16.65    2.12
  -4   8  -7    3.44    0.88
  -3   8  -7    3.06    0.84
  -2   8  -7   -0.23    0.66
  -1   8  -7    3.65    0.95
   0   8  -7   17.55    2.02
   1   8  -7   15.20    1.88
   2   8  -7    3.98    0.97
   3   8  -7    1.60    0.81
 -11   9  -7    5.32    1.00
 -10   9  -7   -1.06    0.59
  -9   9  -7    6.29    1.11
  -8   9  -7   16.18    1.95
  -7   9  -7   -0.59    0.59
  -6   9  -7    2.64    0.84
  -5   9  -7   12.18    1.61
  -4   9  -7    0.70    0.72
  -3   9  -7    9.54    1.43
  -2   9  -7    2.90    0.91
  -1   9  -7    4.26    0.97
   0   9  -7    5.51    1.14
   1   9  -7    0.76    0.74
   2   9  -7    5.61    1.15
 -10  10  -7    0.02    0.68
  -9  10  -7    0.49    0.68
  -8  10  -7    3.60    0.95
  -7  10  -7    9.00    1.37
  -6  10  -7    0.79    0.70
  -5  10  -7    2.79    0.89
  -4  10  -7    6.17    1.13
  -3  10  -7   22.02    2.52
  -2  10  -7    1.39    0.83
  -1  10  -7   -0.64    0.65
   0  10  -7   -0.34    0.67
  -9  11  -7    4.39    1.05
  -8  11  -7    2.57    0.90
  -7  11  -7   -0.55    0.65
  -6  11  -7    0.15    0.69
  -5  11  -7   -0.19    0.70
  -4  11  -7    0.44    0.75
  -3  11  -7    7.85    1.29
  -2  11  -7    4.63    1.07
  -6  12  -7    6.69    1.19
   8  -6  -6   28.19    2.23
   9  -6  -6   72.75    5.85
   5  -5  -6   48.61    3.75
   6  -5  -6   20.84    1.73
   7  -5  -6    0.75    0.43
   8  -5  -6   11.08    1.18
   9  -5  -6    1.84    0.64
  10  -5  -6   12.63    1.40
  11  -5  -6    1.81    0.77
  12  -5  -6    8.36    1.22
   3  -4  -6    0.01    0.23
   4  -4  -6   -0.04    0.26
   5  -4  -6   50.31    3.82
   6  -4  -6   50.25    3.70
   7  -4  -6   12.14    1.21
   8  -4  -6   30.37    2.46
   9  -4  -6    4.61    0.88
  10  -4  -6    1.77    0.74
  11  -4  -6    3.79    0.95
  12  -4  -6   12.64    1.57
  13  -4  -6    0.92    0.79
   1  -3  -6   26.12    2.08
   2  -3  -6   10.12    0.95
   3  -3  -6   14.01    1.32
   4  -3  -6   43.78    3.32
   5  -3  -6   35.85    2.61
   6  -3  -6   17.50    1.55
   7  -3  -6    0.61    0.55
   8  -3  -6    1.94    0.68
   9  -3  -6    8.54    1.15
  10  -3  -6    0.92    0.71
  11  -3  -6    9.69    1.28
  12  -3  -6    4.19    0.98
   0  -2  -6    0.47    0.36
   1  -2  -6    0.83    0.37
   2  -2  -6   -0.18    0.36
   3  -2  -6   26.27    2.19
   5  -2  -6    0.41    0.49
   6  -2  -6   62.59    4.87
   7  -2  -6    6.55    0.92
   8  -2  -6    1.50    0.72
   9  -2  -6    1.47    0.76
  10  -2  -6    1.23    0.73
  11  -2  -6    4.42    0.97
  12  -2  -6   -0.17    0.79
  -2  -1  -6   23.96    2.20
  -1  -1  -6    0.58    0.41
   2  -1  -6    1.43    0.48
   3  -1  -6    8.50    1.02
   4  -1  -6    0.78    0.54
   5  -1  -6  135.91   10.36
   6  -1  -6    4.10    0.80
   7  -1  -6    0.06    0.61
   8  -1  -6   13.54    1.54
   9  -1  -6    2.03    0.79
  10  -1  -6   -0.06    0.68
  11  -1  -6    1.63    0.87
  12  -1  -6   13.41    1.77
  -3   0  -6   15.19    1.47
  -2   0  -6    0.46    0.44
  -1   0  -6   41.33    3.54
   0   0  -6   70.01    5.82
   1   0  -6   44.53    3.55
   2   0  -6    0.43    0.51
   3   0  -6   16.72    1.57
   4   0  -6    0.06    0.49
   5   0  -6   45.04    3.73
   6   0  -6   24.51    2.30
   7   0  -6    4.64    0.90
   8   0  -6   -0.71    0.64
   9   0  -6    0.03    0.64
  10   0  -6    0.09    0.72
  11   0  -6    8.21    1.32
  -4   1  -6    0.69    0.47
  -3   1  -6    7.50    1.08
  -2   1  -6    0.48    0.50
  -1   1  -6   40.78    3.54
   0   1  -6   44.34    3.60
   1   1  -6   -0.11    0.48
   2   1  -6   25.72    2.22
   3   1  -6   40.48    3.28
   4   1  -6   48.37    3.78
   5   1  -6   18.43    1.82
   6   1  -6    4.90    0.88
   7   1  -6    1.37    0.73
   8   1  -6    7.50    1.16
   9   1  -6   -0.19    0.64
  10   1  -6    0.50    0.68
  11   1  -6    8.15    1.25
  -5   2  -6   -0.13    0.48
  -4   2  -6    4.18    0.74
  -3   2  -6   22.08    2.22
  -2   2  -6    1.32    0.53
  -1   2  -6    0.34    0.51
   0   2  -6    0.87    0.55
   1   2  -6    8.92    1.16
   2   2  -6    4.06    0.79
   3   2  -6   27.29    2.51
   4   2  -6   41.28    3.45
   5   2  -6   -0.56    0.61
   6   2  -6   23.99    2.09
   7   2  -6    2.96    0.82
   8   2  -6    0.54    0.65
   9   2  -6    4.60    0.90
  10   2  -6    0.90    0.71
  -6   3  -6   11.76    1.47
  -5   3  -6   23.57    2.47
  -4   3  -6   36.87    3.27
  -3   3  -6   13.46    1.56
  -2   3  -6    9.58    1.16
  -1   3  -6   22.56    2.28
   0   3  -6   14.63    1.56
   1   3  -6    1.03    0.60
   2   3  -6    0.56    0.58
   3   3  -6   14.94    1.60
   4   3  -6    9.74    1.23
   5   3  -6    8.44    1.15
   6   3  -6   56.40    5.17
   7   3  -6    1.33    0.70
   8   3  -6   38.38    3.54
   9   3  -6   19.97    2.10
  -7   4  -6    8.42    1.17
  -6   4  -6   36.77    3.42
  -5   4  -6   41.81    3.79
  -4   4  -6    0.47    0.56
  -3   4  -6   -0.31    0.54
  -2   4  -6    4.15    0.80
  -1   4  -6   38.14    3.45
   0   4  -6    0.11    0.61
   1   4  -6  118.19   10.42
   2   4  -6   55.87    4.77
   3   4  -6    0.40    0.62
   4   4  -6   23.15    2.23
   5   4  -6    0.49    0.63
   6   4  -6   11.15    1.40
   7   4  -6    9.71    1.38
   8   4  -6   16.34    1.88
   9   4  -6    0.03    0.68
  -8   5  -6   10.26    1.20
  -7   5  -6   -0.82    0.55
  -6   5  -6   17.60    1.88
  -5   5  -6   39.24    3.75
  -4   5  -6  116.91   10.38
  -3   5  -6    0.44    0.58
  -2   5  -6   26.79    2.69
  -1   5  -6   41.92    3.99
   0   5  -6   43.57    4.02
   1   5  -6    5.09    0.95
   2   5  -6    6.16    1.02
   3   5  -6    1.84    0.73
   4   5  -6    4.72    0.91
   5   5  -6    9.69    1.29
   6   5  -6    4.30    0.91
   7   5  -6   20.48    2.10
   8   5  -6    0.07    0.67
  -9   6  -6   60.82    5.21
  -8   6  -6   17.14    2.05
  -7   6  -6    5.57    0.95
  -6   6  -6   23.53    2.30
  -5   6  -6    4.10    0.86
  -4   6  -6   52.22    4.92
  -3   6  -6   14.46    1.65
  -2   6  -6   37.97    3.81
  -1   6  -6   15.43    1.99
   0   6  -6   20.81    2.37
   1   6  -6    0.74    0.73
   2   6  -6    0.64    0.66
   3   6  -6    5.96    1.07
   4   6  -6    1.90    0.77
   5   6  -6    1.15    0.70
   6   6  -6   -0.43    0.61
   7   6  -6   24.86    2.38
 -10   7  -6    1.64    0.72
  -9   7  -6    2.82    0.79
  -8   7  -6    2.14    0.74
  -7   7  -6    2.95    0.84
  -6   7  -6    0.15    0.63
  -5   7  -6    3.96    0.91
  -4   7  -6    0.82    0.65
  -3   7  -6    8.45    1.31
  -2   7  -6   -0.96    0.60
  -1   7  -6    3.56    0.90
   0   7  -6    4.07    0.90
   1   7  -6   11.46    1.50
   2   7  -6    3.96    0.91
   3   7  -6    1.07    0.72
   4   7  -6    3.26    0.83
   5   7  -6    3.99    0.94
   6   7  -6   -0.13    0.73
 -10   8  -6    0.82    0.72
  -9   8  -6    6.28    1.16
  -8   8  -6   -0.64    0.61
  -7   8  -6   10.59    1.50
  -6   8  -6    1.25    0.74
  -5   8  -6    0.67    0.70
  -4   8  -6   24.01    2.47
  -3   8  -6    9.56    1.33
  -2   8  -6   20.48    2.38
  -1   8  -6    1.72    0.77
   0   8  -6    0.66    0.73
   1   8  -6    1.34    0.79
   2   8  -6    1.66    0.78
   3   8  -6    6.08    1.12
   4   8  -6   12.06    1.56
   5   8  -6   16.08    1.90
 -11   9  -6    2.75    0.84
 -10   9  -6    2.19    0.77
  -9   9  -6    0.02    0.66
  -8   9  -6    1.99    0.79
  -7   9  -6    1.66    0.79
  -6   9  -6    6.01    1.12
  -5   9  -6    4.27    0.98
  -4   9  -6    0.73    0.72
  -3   9  -6   58.63    5.76
  -2   9  -6    0.65    0.76
  -1   9  -6    8.17    1.25
   0   9  -6    1.29    0.76
   1   9  -6   -0.14    0.66
   2   9  -6    1.74    0.83
   3   9  -6    1.87    0.81
   4   9  -6    0.43    0.72
 -12  10  -6    0.86    0.71
 -11  10  -6    0.39    0.67
 -10  10  -6   -0.47    0.60
  -9  10  -6    0.24    0.65
  -8  10  -6    1.86    0.76
  -7  10  -6   -0.17    0.68
  -6  10  -6    1.33    0.76
  -5  10  -6    9.93    1.40
  -4  10  -6    8.74    1.43
  -3  10  -6    2.00    0.77
  -2  10  -6    0.43    0.71
  -1  10  -6    1.56    0.76
   0  10  -6   -0.56    0.68
   1  10  -6    0.96    0.80
   2  10  -6    0.38    0.76
 -12  11  -6    5.32    1.09
 -11  11  -6    8.52    1.26
 -10  11  -6    1.35    0.72
  -9  11  -6    1.91    0.73
  -8  11  -6    7.07    1.19
  -7  11  -6    2.87    0.87
  -6  11  -6   -0.57    0.63
  -5  11  -6    4.07    0.94
  -4  11  -6    8.74    1.41
  -3  11  -6   26.94    3.26
  -2  11  -6    2.64    0.89
  -1  11  -6   -0.26    0.69
   0  11  -6    6.28    1.19
   1  11  -6   12.77    1.63
 -11  12  -6   11.63    1.64
 -10  12  -6    0.67    0.66
  -9  12  -6    2.42    0.85
  -8  12  -6   10.91    1.54
  -7  12  -6    6.18    1.15
  -6  12  -6   -0.63    0.66
  -5  12  -6   20.65    2.36
  -4  12  -6   16.31    2.15
  -3  12  -6   16.04    2.07
  -2  12  -6    0.32    0.71
  -1  12  -6    5.77    1.14
  -9  13  -6    0.35    0.65
  -8  13  -6   18.01    2.12
  -7  13  -6    1.38    0.79
  -6  13  -6   23.09    2.48
  -5  13  -6   -0.31    0.66
  -4  13  -6    1.29    0.77
  14 -10  -5    8.41    0.93
  13  -9  -5   16.35    2.40
  14  -9  -5    0.93    0.57
  12  -8  -5   32.44    3.29
  13  -8  -5    9.14    1.56
  14  -8  -5    6.29    0.86
   8  -7  -5   26.58    2.02
   9  -7  -5   14.21    1.22
  11  -7  -5   17.18    1.30
  12  -7  -5   -0.12    0.50
  13  -7  -5   12.97    1.12
  14  -7  -5    2.73    0.94
   7  -6  -5    0.94    0.24
   8  -6  -5   25.45    2.03
   9  -6  -5   28.12    2.27
  10  -6  -5    1.16    0.52
  11  -6  -5    5.65    0.72
  12  -6  -5   25.82    1.74
  13  -6  -5    1.19    0.60
  14  -6  -5    3.76    0.75
   5  -5  -5  158.45   12.35
   6  -5  -5    1.94    0.38
   7  -5  -5  112.58    8.26
   9  -5  -5    6.13    0.91
  10  -5  -5    3.16    0.62
  11  -5  -5    5.12    0.72
  12  -5  -5    1.13    0.59
  13  -5  -5    1.20    0.60
  14  -5  -5    1.31    0.62
   3  -4  -5   12.22    0.98
   4  -4  -5    1.32    0.27
   5  -4  -5   22.48    1.81
   6  -4  -5    0.64    0.40
   8  -4  -5   41.29    3.32
   9  -4  -5   -0.16    0.55
  10  -4  -5   19.34    1.44
  11  -4  -5    2.60    0.64
  12  -4  -5    1.54    0.63
  13  -4  -5   -0.09    0.59
  14  -4  -5    1.21    0.68
   1  -3  -5    0.00    0.25
   2  -3  -5   66.95    5.43
   3  -3  -5   36.30    2.87
   4  -3  -5    5.81    0.67
   5  -3  -5   10.79    1.09
   7  -3  -5   38.80    3.18
   8  -3  -5    7.55    1.00
   9  -3  -5    7.05    0.78
  10  -3  -5    3.89    0.66
  11  -3  -5    3.08    0.66
  12  -3  -5    0.12    0.55
  13  -3  -5    1.40    0.60
   0  -2  -5    5.81    0.67
   1  -2  -5   15.99    1.51
   2  -2  -5    6.40    0.70
   3  -2  -5    0.58    0.35
   4  -2  -5   -0.07    0.37
   6  -2  -5   16.07    1.60
   7  -2  -5    3.49    0.78
   8  -2  -5   20.01    2.00
   9  -2  -5    1.21    0.52
  10  -2  -5    1.13    0.52
  11  -2  -5    6.08    0.82
  12  -2  -5    1.03    0.62
  13  -2  -5    5.64    0.82
  -6  -1  -5    0.90    0.42
  -5  -1  -5    1.51    0.44
  -4  -1  -5   18.03    1.86
  -2  -1  -5    0.25    0.39
  -1  -1  -5   17.10    1.59
   0  -1  -5    8.99    0.95
   1  -1  -5    9.97    0.99
   2  -1  -5   18.09    1.61
   3  -1  -5   71.38    5.45
   4  -1  -5   11.86    1.19
   5  -1  -5    2.26    0.63
   6  -1  -5   20.43    2.12
   7  -1  -5   25.11    2.33
   8  -1  -5    4.51    0.88
   9  -1  -5   22.72    2.22
  10  -1  -5    4.73    0.72
  11  -1  -5    0.10    0.53
  12  -1  -5    3.55    0.71
  13  -1  -5    1.00    0.64
  -6   0  -5   13.49    1.35
  -5   0  -5  143.94   12.44
  -4   0  -5    0.55    0.37
  -3   0  -5   31.77    2.96
  -2   0  -5    5.67    0.77
  -1   0  -5    9.32    1.03
   0   0  -5   -0.07    0.36
   1   0  -5    9.71    1.02
   3   0  -5   36.92    2.96
   4   0  -5    1.89    0.57
   5   0  -5  145.00   12.02
   6   0  -5   13.78    1.47
   7   0  -5    5.23    0.93
   8   0  -5   -0.87    0.57
   9   0  -5    5.58    1.00
  10   0  -5   -0.03    0.49
  11   0  -5    6.66    0.80
  12   0  -5    4.97    1.10
  -7   1  -5   28.51    2.38
  -6   1  -5   23.39    2.06
  -5   1  -5    2.29    0.47
  -4   1  -5   10.50    0.82
  -3   1  -5   60.55    5.53
  -2   1  -5   16.46    1.63
  -1   1  -5   10.40    1.08
   0   1  -5    9.86    1.09
   1   1  -5   17.61    1.67
   2   1  -5   -0.38    0.49
   3   1  -5    4.62    0.78
   4   1  -5   19.91    1.90
   5   1  -5    1.76    0.66
   6   1  -5    1.19    0.66
   7   1  -5   20.97    1.96
   8   1  -5   26.97    2.48
   9   1  -5    1.48    0.69
  10   1  -5    9.88    1.33
  11   1  -5    0.03    0.68
  12   1  -5    3.20    0.91
  -7   2  -5    4.29    0.57
  -6   2  -5   12.65    1.27
  -5   2  -5   34.84    2.29
  -4   2  -5   -0.11    0.26
  -3   2  -5    0.43    0.46
  -2   2  -5    5.67    0.83
  -1   2  -5   15.74    1.67
   0   2  -5    5.97    0.85
   1   2  -5   65.68    5.58
   2   2  -5    0.58    0.49
   3   2  -5   10.22    1.15
   4   2  -5    1.03    0.60
   5   2  -5   94.44    7.35
   6   2  -5   19.95    1.93
   7   2  -5    9.43    1.21
   8   2  -5    3.27    0.87
   9   2  -5   -0.98    0.67
  10   2  -5   15.17    1.78
  11   2  -5    2.73    0.86
  -8   3  -5    7.40    0.79
  -7   3  -5   35.17    2.86
  -6   3  -5   78.11    4.97
  -5   3  -5    9.08    0.74
  -4   3  -5    5.58    0.85
  -3   3  -5   31.35    2.96
  -2   3  -5   61.53    5.49
  -1   3  -5    0.24    0.51
   0   3  -5   32.55    3.02
   1   3  -5    9.40    1.25
   2   3  -5   37.31    3.32
   3   3  -5   79.27    7.10
   4   3  -5   12.42    1.37
   5   3  -5   21.44    2.07
   6   3  -5   19.36    2.04
   7   3  -5   85.49    7.48
   8   3  -5    0.30    0.70
   9   3  -5   10.68    1.41
  10   3  -5    4.48    0.96
  -8   4  -5   34.88    2.92
  -7   4  -5   11.12    0.85
  -6   4  -5    0.85    0.32
  -5   4  -5   17.44    1.88
  -4   4  -5    0.76    0.58
  -3   4  -5   10.30    1.30
  -2   4  -5   -0.21    0.51
  -1   4  -5    5.84    0.88
   0   4  -5    1.10    0.59
   1   4  -5    1.80    0.66
   2   4  -5   16.11    1.52
   3   4  -5   32.35    3.04
   4   4  -5   37.71    3.18
   5   4  -5    6.44    1.02
   6   4  -5    1.97    0.74
   7   4  -5   15.03    1.70
   8   4  -5   28.18    2.73
   9   4  -5   18.26    2.14
  10   4  -5    5.83    1.09
  -8   5  -5   20.30    1.39
  -7   5  -5   85.54    5.14
  -6   5  -5    0.71    0.60
  -5   5  -5  140.46   12.05
  -4   5  -5    3.04    0.73
  -3   5  -5   41.88    3.60
  -2   5  -5    9.24    1.25
  -1   5  -5   17.88    1.99
   0   5  -5  143.55   12.56
   1   5  -5   21.62    2.23
   2   5  -5    3.01    0.79
   3   5  -5    4.41    0.96
   4   5  -5   -0.89    0.56
   5   5  -5    2.52    0.77
   6   5  -5    5.02    0.95
   7   5  -5    0.59    0.65
   8   5  -5    7.92    1.28
   9   5  -5    1.11    0.72
  -9   6  -5   20.16    2.06
  -8   6  -5   20.56    1.96
  -7   6  -5    1.55    0.66
  -6   6  -5   11.79    1.49
  -5   6  -5   20.95    2.20
  -4   6  -5   13.34    1.67
  -3   6  -5   86.65    7.59
  -2   6  -5    0.39    0.60
  -1   6  -5    1.04    0.65
   0   6  -5   11.35    1.54
   1   6  -5   23.32    2.56
   2   6  -5   17.12    1.98
   3   6  -5    6.50    1.01
   4   6  -5   16.64    1.76
   5   6  -5    2.71    0.82
   6   6  -5   17.16    2.01
   7   6  -5    7.53    1.22
   8   6  -5    5.08    1.03
 -10   7  -5   91.01    7.52
  -9   7  -5    7.67    1.18
  -8   7  -5   18.21    1.94
  -7   7  -5    5.04    0.91
  -6   7  -5   23.45    2.38
  -5   7  -5    2.92    0.81
  -4   7  -5   32.94    3.24
  -3   7  -5   10.99    1.47
  -2   7  -5   88.38    8.36
  -1   7  -5    1.37    0.69
   0   7  -5    4.27    0.92
   1   7  -5    5.46    0.96
   2   7  -5    1.00    0.65
   3   7  -5    3.46    0.85
   4   7  -5    1.31    0.68
   5   7  -5    0.85    0.69
   6   7  -5    1.13    0.77
   7   7  -5    1.14    0.77
 -10   8  -5    4.70    0.93
  -9   8  -5   25.96    2.48
  -8   8  -5   -0.68    0.61
  -7   8  -5    4.37    0.92
  -6   8  -5   20.21    2.09
  -5   8  -5    7.41    1.09
  -4   8  -5   33.81    3.39
  -3   8  -5   24.09    2.47
  -2   8  -5   18.49    2.21
  -1   8  -5   18.27    2.27
   0   8  -5    0.31    0.67
   1   8  -5   19.64    2.10
   2   8  -5    0.24    0.68
   3   8  -5    1.76    0.77
   4   8  -5    0.54    0.70
   5   8  -5   -0.34    0.64
   6   8  -5    2.64    0.87
 -11   9  -5    0.72    0.67
 -10   9  -5    0.95    0.67
  -9   9  -5    5.22    1.00
  -8   9  -5   17.68    2.23
  -7   9  -5    0.71    0.66
  -6   9  -5    4.58    1.00
  -5   9  -5    0.63    0.65
  -4   9  -5    3.90    0.97
  -3   9  -5   17.43    2.34
  -2   9  -5    7.80    1.33
  -1   9  -5   26.11    2.64
   0   9  -5    6.30    1.16
   1   9  -5    3.21    0.87
   2   9  -5    4.49    0.96
   3   9  -5    1.47    0.72
   4   9  -5   -0.46    0.62
   5   9  -5    0.36    0.65
 -12  10  -5   14.10    1.75
 -11  10  -5    8.76    1.28
 -10  10  -5    0.51    0.68
  -9  10  -5    2.70    0.86
  -8  10  -5    0.45    0.66
  -7  10  -5    4.36    0.92
  -6  10  -5   15.93    1.97
  -5  10  -5    1.14    0.75
  -4  10  -5    0.53    0.70
  -3  10  -5   92.24    8.65
  -2  10  -5    3.87    0.93
  -1  10  -5   -0.03    0.70
   0  10  -5   -0.48    0.64
   1  10  -5    0.34    0.68
   2  10  -5    1.92    0.82
   3  10  -5    0.53    0.68
   4  10  -5    2.29    0.76
 -12  11  -5    0.02    0.60
 -11  11  -5    3.09    0.88
 -10  11  -5    0.71    0.68
  -9  11  -5    6.86    1.11
  -8  11  -5    1.53    0.78
  -7  11  -5    1.32    0.75
  -6  11  -5    2.97    0.90
  -5  11  -5    1.61    0.82
  -4  11  -5   15.98    1.83
  -3  11  -5   -0.27    0.70
  -2  11  -5   -1.62    0.60
  -1  11  -5    9.13    1.34
   0  11  -5    5.69    1.08
   1  11  -5    2.54    0.85
   2  11  -5    4.05    0.96
 -13  12  -5    3.27    0.87
 -12  12  -5    8.14    1.18
 -11  12  -5    2.96    0.83
 -10  12  -5    0.61    0.68
  -9  12  -5    0.69    0.70
  -8  12  -5    0.69    0.68
  -7  12  -5    1.06    0.71
  -6  12  -5   18.18    2.35
  -5  12  -5    0.51    0.71
  -4  12  -5   29.68    3.16
  -3  12  -5   10.22    1.50
  -2  12  -5   16.32    1.96
  -1  12  -5   -0.22    0.68
   0  12  -5    6.61    1.17
   1  12  -5    1.49    0.77
 -12  13  -5    0.53    0.73
 -11  13  -5    4.70    0.98
 -10  13  -5    1.86    0.73
  -9  13  -5   -0.40    0.61
  -8  13  -5   -0.09    0.62
  -7  13  -5   -0.41    0.65
  -6  13  -5    8.69    1.44
  -5  13  -5    8.70    1.41
  -4  13  -5   22.72    2.36
  -3  13  -5    1.61    0.89
  -2  13  -5    1.92    0.82
  -1  13  -5    1.63    0.84
 -10  14  -5    1.99    0.75
  -9  14  -5   -1.05    0.54
  -8  14  -5    4.06    0.99
  -7  14  -5    1.45    0.79
  -6  14  -5    6.95    1.19
  -5  14  -5   -1.01    0.64
  -4  14  -5    5.12    1.14
  12 -14  -4    5.74    1.14
  11 -13  -4   -0.66    0.72
  12 -13  -4    5.92    1.21
  13 -13  -4   12.85    1.66
  10 -12  -4   15.98    1.82
  11 -12  -4    7.03    1.22
  12 -12  -4    8.55    1.41
  13 -12  -4    4.85    0.81
  14 -12  -4    2.14    0.65
  10 -11  -4    3.02    0.92
  11 -11  -4    0.74    0.75
  12 -11  -4    0.94    0.62
  13 -11  -4    9.35    1.02
  14 -11  -4    1.12    0.60
   9 -10  -4    7.85    1.14
  10 -10  -4    0.46    0.68
  11 -10  -4    1.83    0.61
  12 -10  -4    2.33    0.65
  13 -10  -4    1.10    0.57
  14 -10  -4    3.73    0.69
  15 -10  -4    2.56    0.68
   9  -9  -4   67.32    5.62
  10  -9  -4   -0.11    0.35
  11  -9  -4    2.39    0.63
  12  -9  -4   -0.05    0.42
  13  -9  -4   16.08    1.09
  14  -9  -4   -0.03    0.49
  15  -9  -4    1.72    0.61
   8  -8  -4   12.60    0.72
   9  -8  -4    2.47    0.40
  10  -8  -4    3.95    0.49
  11  -8  -4    5.06    0.59
  12  -8  -4    3.12    0.53
  13  -8  -4    5.22    0.62
  14  -8  -4    8.42    0.79
  15  -8  -4    0.76    0.49
   7  -7  -4   11.61    0.73
   8  -7  -4    3.59    0.34
   9  -7  -4   10.90    0.63
  10  -7  -4   13.43    0.92
  11  -7  -4    9.98    0.78
  12  -7  -4    2.49    0.51
  13  -7  -4    2.95    0.54
  14  -7  -4    0.23    0.45
  15  -7  -4    2.61    0.56
   6  -6  -4   24.13    1.35
   7  -6  -4   24.67    1.41
   8  -6  -4    0.01    0.24
   9  -6  -4    4.85    0.51
  10  -6  -4   10.76    0.81
  11  -6  -4    2.12    0.47
  12  -6  -4    2.43    0.50
  13  -6  -4    1.24    0.48
  14  -6  -4    4.42    0.63
  15  -6  -4    0.59    0.49
   5  -5  -4    1.39    0.18
   6  -5  -4    0.64    0.33
   7  -5  -4    6.30    0.61
   8  -5  -4    0.32    0.46
   9  -5  -4   45.08    2.36
  10  -5  -4   50.96    2.68
  11  -5  -4    2.12    0.45
  12  -5  -4    9.51    0.79
  13  -5  -4    4.39    0.62
  14  -5  -4    1.59    0.51
  15  -5  -4    3.10    0.58
   3  -4  -4   14.66    1.13
   4  -4  -4  120.48    9.38
   5  -4  -4    0.45    0.30
   6  -4  -4   96.73    7.70
   7  -4  -4    0.01    0.37
   8  -4  -4   13.09    0.85
   9  -4  -4   36.62    1.95
  10  -4  -4    0.18    0.41
  11  -4  -4   11.53    0.88
  12  -4  -4   12.28    0.92
  13  -4  -4    4.16    0.59
  14  -4  -4    1.35    0.50
  -3  -3  -4   51.11    4.48
  -2  -3  -4   13.44    1.40
   2  -3  -4   10.33    0.95
   3  -3  -4   78.88    6.08
   4  -3  -4   39.43    3.01
   5  -3  -4    0.44    0.36
   6  -3  -4   54.92    4.50
   7  -3  -4    7.97    0.73
   8  -3  -4    0.28    0.43
   9  -3  -4    6.86    0.63
  10  -3  -4   36.46    2.01
  11  -3  -4   54.86    2.84
  12  -3  -4    3.22    0.56
  13  -3  -4    6.28    0.68
  14  -3  -4    0.55    0.48
  -4  -2  -4   91.33    7.70
  -3  -2  -4    0.39    0.37
  -2  -2  -4    1.09    0.42
  -1  -2  -4   10.25    1.10
   0  -2  -4   42.24    2.54
   1  -2  -4    1.79    0.33
   2  -2  -4   43.46    3.63
   3  -2  -4   12.91    1.15
   4  -2  -4    0.89    0.37
   5  -2  -4   13.64    1.40
   6  -2  -4    9.46    0.80
   7  -2  -4    1.02    0.43
   8  -2  -4   12.59    1.06
   9  -2  -4   -0.06    0.49
  10  -2  -4   16.66    1.13
  11  -2  -4   24.77    1.45
  12  -2  -4   15.73    1.11
  13  -2  -4    0.83    0.58
  14  -2  -4    6.86    0.91
  -5  -1  -4   -0.01    0.31
  -4  -1  -4    0.09    0.33
  -3  -1  -4   34.09    3.03
  -2  -1  -4   11.85    0.85
  -1  -1  -4    1.86    0.31
   0  -1  -4   40.23    2.47
   1  -1  -4   41.79    2.56
   2  -1  -4    2.23    0.43
   3  -1  -4   10.58    1.08
   4  -1  -4   12.37    1.32
   5  -1  -4    6.46    0.90
   6  -1  -4   -0.10    0.35
   7  -1  -4   26.29    1.74
   8  -1  -4   36.95    2.46
   9  -1  -4   57.33    3.54
  10  -1  -4    6.98    0.83
  11  -1  -4    2.09    0.63
  12  -1  -4    8.24    0.91
  13  -1  -4    8.38    0.98
  -6   0  -4   22.82    1.95
  -5   0  -4    1.39    0.37
  -4   0  -4  115.43    9.43
  -3   0  -4   72.72    4.35
  -2   0  -4   41.31    2.60
  -1   0  -4   38.99    2.53
   0   0  -4  149.64    8.62
   1   0  -4   43.81    3.51
   2   0  -4   43.26    3.63
   3   0  -4   71.46    6.07
   4   0  -4  116.11    9.50
   5   0  -4    2.34    0.58
   6   0  -4   20.68    1.45
   7   0  -4   10.04    0.91
   8   0  -4   11.23    0.99
   9   0  -4   73.23    4.33
  10   0  -4    0.06    0.52
  11   0  -4    1.19    0.56
  12   0  -4   12.66    1.14
  13   0  -4   12.14    1.65
  -6   1  -4   -0.20    0.26
  -5   1  -4    7.01    0.79
  -4   1  -4   11.81    0.92
  -3   1  -4    9.95    1.05
  -2   1  -4    2.30    0.35
  -1   1  -4   41.07    2.49
   0   1  -4   42.18    2.55
   1   1  -4    2.20    0.51
   3   1  -4   37.19    3.07
   4   1  -4   -0.06    0.46
   5   1  -4    0.55    0.50
   6   1  -4   19.53    1.45
   7   1  -4    3.44    0.57
   8   1  -4    3.07    0.58
   9   1  -4    0.18    0.49
  10   1  -4    2.70    0.63
  11   1  -4    1.30    0.58
  12   1  -4    5.00    1.07
  -7   2  -4    0.42    0.23
  -6   2  -4    7.88    0.82
  -5   2  -4   13.00    0.96
  -4   2  -4    1.23    0.28
  -3   2  -4   11.53    0.86
  -2   2  -4   39.48    3.62
  -1   2  -4    1.88    0.49
   1   2  -4   10.30    1.16
   2   2  -4    0.75    0.49
   3   2  -4    0.84    0.51
   4   2  -4   82.57    7.13
   5   2  -4    4.91    0.84
   6   2  -4   -0.34    0.59
   7   2  -4   10.78    0.90
   8   2  -4    3.60    0.61
   9   2  -4    4.10    0.65
  10   2  -4    3.68    0.66
  11   2  -4    9.10    1.34
  12   2  -4    3.04    0.89
  -8   3  -4    0.29    0.10
  -7   3  -4    7.27    0.71
  -6   3  -4   47.44    2.84
  -5   3  -4    0.60    0.27
  -4   3  -4   33.26    2.13
  -3   3  -4   72.86    4.31
  -2   3  -4   10.63    0.82
  -1   3  -4   12.88    1.31
   0   3  -4   76.85    6.22
   1   3  -4   12.29    1.41
   2   3  -4   14.98    1.48
   3   3  -4   36.53    4.06
   4   3  -4   -0.28    0.51
   5   3  -4   -0.31    0.58
   6   3  -4    4.33    0.84
   7   3  -4   11.14    1.55
   8   3  -4    6.03    0.71
   9   3  -4    1.32    0.73
  10   3  -4    1.21    0.74
  11   3  -4    1.61    0.76
  -8   4  -4   12.96    1.16
  -7   4  -4   -0.17    0.22
  -6   4  -4   85.70    5.01
  -5   4  -4    0.18    0.28
  -4   4  -4  113.50    6.72
  -3   4  -4   13.62    1.01
  -2   4  -4    1.34    0.47
  -1   4  -4   33.88    3.14
   0   4  -4  111.70    9.53
   1   4  -4    7.46    1.01
   2   4  -4    7.46    1.05
   3   4  -4    6.30    0.97
   4   4  -4   12.70    1.47
   5   4  -4   39.42    3.95
   6   4  -4    9.74    1.42
   7   4  -4    7.71    1.20
   8   4  -4    2.56    0.81
   9   4  -4   13.84    1.64
  10   4  -4    2.08    0.82
  -9   5  -4   48.60    3.71
  -8   5  -4    0.43    0.26
  -7   5  -4    5.33    0.50
  -6   5  -4   -0.06    0.27
  -5   5  -4    1.35    0.34
  -4   5  -4    7.21    1.01
  -3   5  -4   14.36    1.54
  -2   5  -4    0.03    0.53
  -1   5  -4    0.28    0.53
   0   5  -4    2.62    0.65
   1   5  -4    0.18    0.54
   2   5  -4   -0.40    0.53
   3   5  -4    0.50    0.60
   4   5  -4   32.45    3.05
   5   5  -4   48.71    4.26
   6   5  -4    1.64    0.71
   7   5  -4    1.88    0.77
   8   5  -4    6.11    1.01
   9   5  -4    0.40    0.71
  10   5  -4    5.05    1.03
 -10   6  -4   14.65    1.10
  -9   6  -4    3.84    0.43
  -8   6  -4    0.18    0.31
  -7   6  -4   21.10    1.41
  -6   6  -4   21.12    1.43
  -5   6  -4    0.85    0.48
  -4   6  -4    6.50    1.07
  -3   6  -4   50.04    4.58
  -2   6  -4   90.20    7.81
  -1   6  -4    0.19    0.56
   0   6  -4   22.93    2.18
   1   6  -4   22.93    2.42
   2   6  -4   10.46    1.31
   3   6  -4    4.68    0.94
   4   6  -4   -0.26    0.58
   5   6  -4    0.43    0.64
   6   6  -4    1.38    0.70
   7   6  -4    2.44    0.84
   8   6  -4    6.77    1.15
   9   6  -4    1.52    0.75
 -10   7  -4   15.57    1.33
  -9   7  -4    8.95    0.79
  -8   7  -4    2.32    0.48
  -7   7  -4    5.83    1.14
  -6   7  -4   18.63    2.39
  -5   7  -4   -0.13    0.56
  -4   7  -4    6.91    1.03
  -3   7  -4    0.44    0.59
  -2   7  -4    3.96    0.87
  -1   7  -4   19.94    2.18
   0   7  -4    9.55    1.33
   1   7  -4   37.82    3.33
   2   7  -4   -0.62    0.57
   3   7  -4   30.96    3.04
   4   7  -4    9.77    1.32
   5   7  -4    7.40    1.15
   6   7  -4    0.42    0.64
   7   7  -4    0.01    0.64
   8   7  -4    0.50    0.66
 -10   8  -4    3.00    0.78
  -9   8  -4    1.98    0.71
  -8   8  -4    7.96    1.30
  -7   8  -4   36.04    3.46
  -6   8  -4   11.53    1.48
  -5   8  -4    0.72    0.41
  -4   8  -4   11.37    1.44
  -3   8  -4    0.81    0.51
  -2   8  -4    0.25    0.61
  -1   8  -4    3.54    0.83
   0   8  -4   11.35    1.43
   1   8  -4   51.58    4.84
   2   8  -4   14.52    1.81
   3   8  -4   47.05    4.23
   4   8  -4    8.90    1.34
   5   8  -4    3.85    0.88
   6   8  -4    2.56    0.82
   7   8  -4    1.63    0.73
 -11   9  -4    3.62    0.52
 -10   9  -4   -0.53    0.56
  -9   9  -4   65.88    6.08
  -8   9  -4   53.81    4.97
  -7   9  -4    0.82    0.64
  -6   9  -4    4.65    0.99
  -5   9  -4   35.64    2.34
  -4   9  -4   44.08    4.10
  -3   9  -4    3.51    0.77
  -2   9  -4    9.00    1.32
  -1   9  -4    2.75    0.81
   0   9  -4   59.80    5.61
   1   9  -4    6.24    1.08
   2   9  -4   21.70    2.23
   3   9  -4    1.76    0.76
   4   9  -4    3.03    0.86
   5   9  -4    1.12    0.70
   6   9  -4    1.20    0.71
 -11  10  -4    2.64    0.51
 -10  10  -4   -0.13    0.56
  -9  10  -4    5.33    1.06
  -8  10  -4   16.46    1.92
  -7  10  -4   34.13    3.41
  -6  10  -4    0.47    0.67
  -5  10  -4   49.31    4.62
  -4  10  -4   10.40    1.43
  -3  10  -4   11.01    1.57
  -2  10  -4    2.68    0.86
  -1  10  -4   -0.45    0.64
   0  10  -4    1.04    0.74
   1  10  -4    1.71    0.77
   2  10  -4   14.56    1.77
   3  10  -4    5.16    1.01
   4  10  -4    0.19    0.63
   5  10  -4    1.17    0.72
 -12  11  -4    1.55    0.73
 -11  11  -4    0.04    0.42
 -10  11  -4    1.97    0.75
  -9  11  -4   22.95    2.41
  -8  11  -4   52.11    4.87
  -7  11  -4   10.52    1.47
  -6  11  -4   -0.08    0.67
  -5  11  -4    2.05    0.77
  -4  11  -4    8.47    1.32
  -3  11  -4    5.66    1.05
  -2  11  -4    1.84    0.80
  -1  11  -4    3.22    0.84
   0  11  -4    0.78    0.74
   1  11  -4    8.06    1.23
   2  11  -4   -0.23    0.64
   3  11  -4    0.78    0.70
 -12  12  -4    9.53    1.40
 -11  12  -4    6.86    0.75
 -10  12  -4   14.96    1.82
  -9  12  -4    2.20    0.81
  -8  12  -4    8.42    1.41
  -7  12  -4    9.15    1.32
  -6  12  -4    3.03    0.84
  -5  12  -4    2.54    0.84
  -4  12  -4    0.32    0.78
  -3  12  -4   -1.04    0.67
  -2  12  -4    3.13    0.90
  -1  12  -4    1.23    0.79
   0  12  -4   10.37    1.45
   1  12  -4    9.30    1.29
   2  12  -4    4.69    1.01
 -13  13  -4   11.51    1.57
 -12  13  -4    6.62    1.12
 -11  13  -4    0.90    0.47
 -10  13  -4    3.59    0.99
  -9  13  -4    3.80    0.90
  -8  13  -4    4.84    0.96
  -7  13  -4   -1.01    0.62
  -6  13  -4    2.15    0.88
  -5  13  -4    5.28    1.03
  -4  13  -4   16.30    1.89
  -3  13  -4    0.21    0.77
  -2  13  -4    8.20    1.34
  -1  13  -4    5.97    1.08
   0  13  -4   11.67    1.64
 -12  14  -4    5.74    1.06
 -11  14  -4    0.49    0.45
 -10  14  -4   -0.25    0.43
  -9  14  -4    0.49    0.73
  -8  14  -4    4.35    0.96
  -7  14  -4   -1.22    0.60
  -6  14  -4    8.92    1.34
  -5  14  -4   -0.50    0.66
  -4  14  -4    2.88    0.91
  -3  14  -4    0.79    0.74
  -2  14  -4    2.77    0.86
 -10  15  -4    1.97    0.54
  -9  15  -4    0.45    0.67
  -8  15  -4   -0.04    0.74
  -7  15  -4   -0.30    0.71
  -6  15  -4    1.99    0.84
  -5  15  -4    4.11    0.94
  11 -15  -3    0.29    0.87
  12 -15  -3    1.30    0.89
  10 -14  -3    5.86    1.11
  11 -14  -3    2.66    0.92
  12 -14  -3   -0.31    0.76
  13 -14  -3    0.82    0.58
   9 -13  -3    1.12    0.83
  10 -13  -3    1.55    0.86
  11 -13  -3    6.65    1.17
  12 -13  -3    1.15    0.59
  13 -13  -3   -1.21    0.53
  14 -13  -3    0.93    0.63
   8 -12  -3    1.53    0.73
   9 -12  -3    5.59    1.08
  10 -12  -3    2.35    0.61
  11 -12  -3    0.03    0.59
  12 -12  -3   23.38    1.86
  13 -12  -3    6.53    0.88
  14 -12  -3   41.35    2.98
  15 -12  -3    5.03    0.80
   7 -11  -3   29.84    2.67
   8 -11  -3   46.75    3.97
   9 -11  -3   50.81    3.35
  10 -11  -3    0.30    0.57
  11 -11  -3   21.02    1.64
  12 -11  -3    7.09    0.89
  13 -11  -3    1.46    0.63
  14 -11  -3    0.59    0.57
  15 -11  -3    0.27    0.60
   7 -10  -3   10.07    0.76
   8 -10  -3    0.49    0.63
   9 -10  -3   -0.18    0.49
  10 -10  -3    1.50    0.59
  11 -10  -3   -0.48    0.51
  12 -10  -3    4.81    0.75
  13 -10  -3    7.24    0.93
  14 -10  -3    0.38    0.58
  15 -10  -3    2.38    0.70
   6  -9  -3    0.12    0.20
   7  -9  -3    6.44    0.56
   8  -9  -3   44.11    2.43
   9  -9  -3   15.93    1.02
  10  -9  -3    0.46    0.52
  11  -9  -3   -0.17    0.53
  12  -9  -3    0.01    0.51
  13  -9  -3    2.76    0.68
  14  -9  -3    4.83    0.76
  15  -9  -3    7.36    0.97
  16  -9  -3    0.67    0.79
   5  -8  -3   18.49    1.43
   6  -8  -3    9.57    0.69
   7  -8  -3    0.55    0.22
   8  -8  -3   23.88    1.37
   9  -8  -3   28.20    2.02
  10  -8  -3   30.75    2.29
  11  -8  -3    0.14    0.45
  12  -8  -3    0.85    0.57
  13  -8  -3    5.39    0.83
  14  -8  -3    0.92    0.60
  15  -8  -3   53.12    3.78
  16  -8  -3    1.42    0.62
   5  -7  -3   15.53    0.99
   6  -7  -3    2.04    0.27
   7  -7  -3    0.21    0.23
   8  -7  -3   20.98    1.22
   9  -7  -3    3.80    0.44
  10  -7  -3   27.60    1.99
  11  -7  -3    5.94    0.80
  12  -7  -3   24.49    2.13
  13  -7  -3    1.90    0.64
  14  -7  -3   10.09    1.09
  15  -7  -3   -0.07    0.57
  16  -7  -3   -0.13    0.54
   5  -6  -3   57.05    3.49
   6  -6  -3   30.49    1.61
   7  -6  -3   69.04    3.42
   8  -6  -3   15.01    0.95
   9  -6  -3    2.21    0.56
  10  -6  -3   31.46    2.41
  11  -6  -3   29.87    2.21
  12  -6  -3    5.04    0.80
  13  -6  -3    4.92    0.80
  14  -6  -3   11.66    1.22
  15  -6  -3    1.86    0.51
   5  -5  -3   10.90    0.56
   6  -5  -3   33.18    1.70
   7  -5  -3    7.98    0.79
   8  -5  -3   14.61    1.18
   9  -5  -3   10.31    1.05
  10  -5  -3    0.40    0.49
  11  -5  -3    6.84    0.86
  12  -5  -3    6.66    0.89
  13  -5  -3    0.27    0.45
  14  -5  -3    3.16    0.57
  15  -5  -3   -0.05    0.46
  -1  -4  -3    7.86    0.93
   0  -4  -3  106.76    9.26
   1  -4  -3   11.08    1.17
   2  -4  -3  143.59   12.16
   3  -4  -3   12.04    1.24
   4  -4  -3  117.42    9.44
   5  -4  -3    8.95    0.60
   6  -4  -3    0.65    0.28
   7  -4  -3    3.22    0.41
   8  -4  -3    2.10    0.53
   9  -4  -3   29.27    2.19
  10  -4  -3   36.19    2.49
  11  -4  -3   29.38    1.70
  12  -4  -3    0.13    0.44
  13  -4  -3    1.09    0.48
  14  -4  -3    6.80    0.69
  15  -4  -3    0.33    0.47
  -2  -3  -3    9.16    0.97
  -1  -3  -3   12.69    1.28
   0  -3  -3    2.69    0.53
   1  -3  -3   28.94    2.43
   2  -3  -3  192.56   11.02
   3  -3  -3    2.73    0.29
   4  -3  -3   10.64    0.77
   5  -3  -3   10.86    0.70
   6  -3  -3   55.70    2.88
   7  -3  -3   16.74    0.99
   8  -3  -3   14.84    0.97
   9  -3  -3    0.38    0.38
  10  -3  -3    8.65    0.73
  11  -3  -3   45.68    2.50
  12  -3  -3    6.49    0.68
  13  -3  -3    1.28    0.50
  14  -3  -3    2.79    0.55
  15  -3  -3    1.85    0.55
  -3  -2  -3   12.00    1.11
  -2  -2  -3  157.35   12.43
  -1  -2  -3  194.48   15.90
   0  -2  -3   15.29    0.99
   1  -2  -3  198.03   11.50
   2  -2  -3   15.68    0.99
   3  -2  -3   27.56    1.73
   4  -2  -3  148.11    7.19
   5  -2  -3    8.42    0.61
   6  -2  -3   55.30    3.64
   7  -2  -3   14.66    0.92
   8  -2  -3   10.39    0.75
   9  -2  -3    6.67    0.60
  10  -2  -3    0.11    0.40
  11  -2  -3   57.42    2.95
  12  -2  -3    1.69    0.50
  13  -2  -3    6.21    0.66
  14  -2  -3    0.15    0.47
  -4  -1  -3    9.48    0.90
  -3  -1  -3   11.92    1.06
  -2  -1  -3   29.80    2.45
  -1  -1  -3  195.93   11.57
   0  -1  -3  114.61    6.77
   1  -1  -3  116.01    6.73
   2  -1  -3  195.87   11.58
   3  -1  -3  187.32   11.24
   4  -1  -3   12.29    0.75
   5  -1  -3    8.63    0.72
   6  -1  -3   58.06    2.85
   7  -1  -3    2.33    0.38
   8  -1  -3    0.56    0.36
   9  -1  -3   48.81    2.58
  10  -1  -3    0.61    0.41
  11  -1  -3    0.97    0.45
  12  -1  -3    0.65    0.45
  13  -1  -3    0.19    0.45
  14  -1  -3    0.98    0.49
  -5   0  -3   10.80    1.01
  -4   0  -3  124.70    9.47
  -3   0  -3    2.74    0.43
  -2   0  -3   14.56    0.99
  -1   0  -3  112.12    6.73
   0   0  -3    0.10    0.25
   1   0  -3  114.66    6.78
   2   0  -3   15.68    1.02
   3   0  -3    2.64    0.37
   4   0  -3  109.18    5.36
   5   0  -3   10.91    0.84
   6   0  -3   29.09    2.76
   7   0  -3    0.08    0.32
   8   0  -3   24.82    1.42
   9   0  -3   16.84    1.06
  10   0  -3    2.36    0.48
  11   0  -3   21.00    1.28
  12   0  -3   29.36    1.67
  13   0  -3   -0.11    0.48
  -5   1  -3    9.03    0.81
  -4   1  -3   12.49    0.87
  -3   1  -3  189.77   11.04
  -2   1  -3  195.46   11.52
  -1   1  -3  115.07    6.78
   0   1  -3  116.34    6.75
   1   1  -3  192.64   11.53
   2   1  -3   27.21    1.71
   3   1  -3    9.97    0.82
   4   1  -3    9.06    0.76
   5   1  -3   32.81    2.05
   6   1  -3   69.27    4.04
   7   1  -3   20.63    1.46
   8   1  -3   29.98    1.96
   9   1  -3   -0.40    0.48
  10   1  -3    0.80    0.56
  11   1  -3    9.45    0.97
  12   1  -3    8.81    0.99
  13   1  -3    1.46    0.81
  -6   2  -3   66.55    4.95
  -5   2  -3    8.75    0.65
  -4   2  -3  145.26    7.02
  -3   2  -3   27.38    1.69
  -2   2  -3   15.43    1.03
  -1   2  -3  203.55   11.60
   0   2  -3   14.98    1.04
   1   2  -3  188.21   11.07
   2   2  -3  140.25    8.62
   3   2  -3    9.37    1.20
   4   2  -3    0.35    0.33
   5   2  -3   10.24    0.76
   6   2  -3   14.25    1.06
   7   2  -3    3.48    0.57
   8   2  -3   36.60    2.33
   9   2  -3   -0.28    0.49
  10   2  -3    5.54    0.78
  11   2  -3    1.79    0.62
  12   2  -3   41.27    4.00
  -7   3  -3   19.22    1.50
  -6   3  -3   55.08    3.30
  -5   3  -3   11.02    0.78
  -4   3  -3   10.66    0.58
  -3   3  -3    3.00    0.32
  -2   3  -3  195.96   11.26
  -1   3  -3   28.42    1.78
   0   3  -3    2.58    0.40
   1   3  -3   12.74    0.91
   2   3  -3    9.60    1.08
   3   3  -3   56.30    4.77
   4   3  -3    1.80    0.66
   5   3  -3   15.57    1.06
   6   3  -3    2.36    0.48
   7   3  -3   31.10    2.05
   8   3  -3    0.40    0.48
   9   3  -3   -0.42    0.51
  10   3  -3    8.45    0.92
  11   3  -3   -0.82    0.64
  12   3  -3    3.90    0.98
  -7   4  -3    2.95    0.32
  -6   4  -3    0.53    0.25
  -5   4  -3    8.67    0.59
  -4   4  -3  111.55    5.36
  -3   4  -3   13.40    0.75
  -2   4  -3  151.82    8.82
  -1   4  -3   11.01    0.84
   0   4  -3  105.86    9.56
   1   4  -3    9.04    1.05
   2   4  -3   56.22    5.12
   3   4  -3   13.92    1.78
   4   4  -3    3.10    0.75
   5   4  -3   13.97    0.96
   6   4  -3   38.89    2.46
   7   4  -3    7.58    0.76
   8   4  -3    0.68    0.44
   9   4  -3    2.14    0.80
  10   4  -3    0.70    0.70
  11   4  -3    0.26    0.70
  -9   5  -3   12.80    0.76
  -8   5  -3   12.72    0.98
  -7   5  -3    8.40    0.67
  -6   5  -3   32.74    2.02
  -5   5  -3   10.85    0.66
  -4   5  -3    8.55    0.58
  -3   5  -3    9.74    0.61
  -2   5  -3    9.91    1.23
  -1   5  -3    8.28    1.10
   0   5  -3    9.90    1.23
   1   5  -3   59.55    5.06
   2   5  -3   11.84    1.56
   3   5  -3   16.50    1.71
   4   5  -3   31.53    2.89
   5   5  -3    0.92    0.62
   6   5  -3   29.45    2.65
   7   5  -3   23.02    2.48
   8   5  -3    5.79    1.03
   9   5  -3    2.52    0.87
  10   5  -3    3.59    0.92
 -10   6  -3   42.15    2.30
  -9   6  -3    2.12    0.28
  -8   6  -3   13.77    0.97
  -7   6  -3   66.82    4.01
  -6   6  -3   32.04    1.94
  -5   6  -3   56.76    2.83
  -4   6  -3   61.02    3.63
  -3   6  -3   60.60    3.52
  -2   6  -3    0.79    0.55
  -1   6  -3   31.18    2.96
   0   6  -3   31.44    2.86
   1   6  -3    2.45    0.66
   2   6  -3    8.86    1.18
   3   6  -3    0.56    0.59
   4   6  -3   32.80    3.28
   5   6  -3    5.27    0.96
   6   6  -3    5.66    1.01
   7   6  -3    1.55    0.73
   8   6  -3    1.29    0.72
   9   6  -3    4.88    1.07
 -11   7  -3    9.09    0.75
 -10   7  -3   34.68    1.90
  -9   7  -3    3.04    0.34
  -8   7  -3   21.18    1.39
  -7   7  -3    0.23    0.32
  -6   7  -3    1.52    0.65
  -5   7  -3   15.43    1.11
  -4   7  -3   18.08    1.18
  -3   7  -3    3.04    0.43
  -2   7  -3    7.94    1.05
  -1   7  -3   66.91    5.95
   0   7  -3    0.94    0.60
   1   7  -3    0.37    0.56
   2   7  -3    6.48    1.00
   3   7  -3   10.94    1.30
   4   7  -3   28.93    2.69
   5   7  -3    6.13    1.02
   6   7  -3    4.41    0.98
   7   7  -3    8.16    1.26
   8   7  -3   49.50    4.52
   9   7  -3   -0.21    0.62
 -11   8  -3    0.43    0.41
 -10   8  -3   36.18    1.85
  -9   8  -3   28.44    1.89
  -8   8  -3   23.43    2.41
  -7   8  -3    0.39    0.55
  -6   8  -3   11.42    1.26
  -5   8  -3   15.00    1.15
  -4   8  -3    4.05    0.49
  -3   8  -3   14.77    1.06
  -2   8  -3   14.59    1.70
  -1   8  -3   20.57    2.15
   0   8  -3   29.05    2.44
   1   8  -3   46.06    4.27
   2   8  -3    0.60    0.63
   3   8  -3   39.80    3.91
   4   8  -3    0.79    0.66
   5   8  -3    1.17    0.70
   6   8  -3   11.77    1.53
   7   8  -3   -0.21    0.63
   8   8  -3    1.02    0.71
 -11   9  -3    0.01    0.49
 -10   9  -3    0.56    0.39
  -9   9  -3   13.69    1.74
  -8   9  -3   44.06    4.42
  -7   9  -3    5.31    0.95
  -6   9  -3    0.23    0.59
  -5   9  -3   33.62    2.14
  -4   9  -3   12.72    0.98
  -3   9  -3    2.94    0.40
  -2   9  -3    3.25    0.83
  -1   9  -3   31.58    2.98
   0   9  -3   17.93    1.88
   1   9  -3   -0.19    0.59
   2   9  -3   51.29    4.68
   3   9  -3    6.48    1.04
   4   9  -3    2.30    0.77
   5   9  -3    2.15    0.78
   6   9  -3    1.50    0.74
   7   9  -3    0.48    0.69
 -12  10  -3    6.50    0.88
 -11  10  -3    0.37    0.41
 -10  10  -3    2.13    0.48
  -9  10  -3   -0.01    0.59
  -8  10  -3    0.41    0.60
  -7  10  -3    8.72    1.23
  -6  10  -3   37.65    3.48
  -5  10  -3    0.58    0.39
  -4  10  -3   38.57    2.34
  -3  10  -3   27.72    2.75
  -2  10  -3   36.45    3.25
  -1  10  -3    0.52    0.66
   0  10  -3    1.94    0.74
   1  10  -3    0.57    0.69
   2  10  -3    1.89    0.77
   3  10  -3    0.55    0.63
   4  10  -3    5.31    1.01
   5  10  -3    0.85    0.67
 -12  11  -3    8.57    0.80
 -11  11  -3   20.92    1.44
 -10  11  -3    2.25    0.48
  -9  11  -3   53.13    5.03
  -8  11  -3   43.00    4.25
  -7  11  -3   26.65    2.85
  -6  11  -3    6.39    1.13
  -5  11  -3   28.00    3.04
  -4  11  -3    6.96    1.08
  -3  11  -3   -0.33    0.61
  -2  11  -3   -1.58    0.59
  -1  11  -3    1.04    0.71
   0  11  -3   18.10    2.17
   1  11  -3    0.60    0.67
   2  11  -3    3.30    0.90
   3  11  -3    2.88    0.82
   4  11  -3   -0.58    0.58
 -12  12  -3   29.00    1.93
 -11  12  -3    0.05    0.42
 -10  12  -3    2.06    0.50
  -9  12  -3    5.73    1.04
  -8  12  -3   -0.19    0.61
  -7  12  -3    6.93    1.13
  -6  12  -3    6.67    1.10
  -5  12  -3   27.79    2.95
  -4  12  -3    0.83    0.72
  -3  12  -3    0.02    0.66
  -2  12  -3    4.33    0.99
  -1  12  -3    7.61    1.20
   0  12  -3   29.11    2.59
   1  12  -3    0.91    0.77
   2  12  -3    1.34    0.71
   3  12  -3   -0.48    0.59
 -13  13  -3    0.51    0.62
 -12  13  -3    0.06    0.45
 -11  13  -3    5.16    0.64
 -10  13  -3    0.95    0.46
  -9  13  -3    1.07    0.46
  -8  13  -3    0.24    0.61
  -7  13  -3    6.42    1.12
  -6  13  -3    0.82    0.72
  -5  13  -3    5.14    1.09
  -4  13  -3    3.61    0.91
  -3  13  -3    7.78    1.24
  -2  13  -3    0.37    0.68
  -1  13  -3    7.20    1.16
   0  13  -3   -0.31    0.66
   1  13  -3    0.37    0.73
 -13  14  -3    1.89    0.76
 -12  14  -3    0.20    0.44
 -11  14  -3    3.75    0.58
 -10  14  -3    5.30    0.71
  -9  14  -3    2.73    0.56
  -8  14  -3   13.54    1.65
  -7  14  -3   10.03    1.38
  -6  14  -3    2.12    0.78
  -5  14  -3    3.24    0.89
  -3  14  -3   -0.39    0.70
  -1  14  -3   -0.09    0.68
 -12  15  -3    0.89    0.50
 -11  15  -3   -0.24    0.47
 -10  15  -3   -0.37    0.43
  -9  15  -3    1.38    0.52
  -8  15  -3    1.19    0.49
  -7  15  -3   56.67    5.28
  -6  15  -3    6.97    1.27
  -5  15  -3    4.01    0.92
  -4  15  -3    0.59    0.71
  -3  15  -3    4.38    0.97
  -9  16  -3   -0.05    0.44
  -8  16  -3    0.61    0.50
  -7  16  -3    0.94    0.72
  10 -16  -2    3.15    1.01
  11 -16  -2    3.66    1.05
   9 -15  -2    9.61    1.30
  10 -15  -2    2.45    0.95
  11 -15  -2   -0.31    0.76
  12 -15  -2    4.66    0.76
  13 -15  -2   -0.39    0.54
   8 -14  -2    2.28    0.83
   9 -14  -2    0.56    0.77
  10 -14  -2    0.41    0.84
  11 -14  -2    1.17    0.59
  12 -14  -2    6.03    0.82
  13 -14  -2    5.42    0.82
  14 -14  -2    1.29    0.62
   7 -13  -2    3.98    0.88
   8 -13  -2    2.95    0.84
   9 -13  -2    6.89    1.14
  10 -13  -2    2.94    0.66
  11 -13  -2    2.54    0.63
  12 -13  -2    1.74    0.63
  13 -13  -2    0.57    0.59
  14 -13  -2    2.89    0.70
  15 -13  -2    0.03    0.56
   6 -12  -2   -0.02    0.63
   7 -12  -2   10.09    1.28
   8 -12  -2   31.72    2.80
   9 -12  -2   12.05    1.05
  10 -12  -2    1.60    0.60
  11 -12  -2    4.61    0.71
  12 -12  -2    0.31    0.55
  13 -12  -2    2.76    0.70
  14 -12  -2   15.92    1.44
  15 -12  -2    1.10    0.61
   4 -11  -2   17.96    1.78
   5 -11  -2    0.88    0.43
   6 -11  -2    1.87    0.38
   7 -11  -2   12.65    1.03
   8 -11  -2   30.25    2.01
   9 -11  -2    5.56    0.73
  10 -11  -2    6.45    0.79
  11 -11  -2    3.00    0.66
  12 -11  -2    3.28    0.70
  13 -11  -2    4.09    0.72
  14 -11  -2   13.32    1.27
  15 -11  -2    2.55    0.73
  16 -11  -2    1.31    0.63
   3 -10  -2    8.41    1.01
   4 -10  -2    0.74    0.41
   5 -10  -2    4.10    0.46
   6 -10  -2    0.65    0.30
   7 -10  -2    4.33    0.45
   8 -10  -2    1.77    0.35
   9 -10  -2    4.29    0.67
  10 -10  -2    4.45    0.71
  11 -10  -2    0.89    0.55
  12 -10  -2    0.46    0.56
  13 -10  -2   -0.33    0.53
  14 -10  -2    0.72    0.58
  15 -10  -2    1.76    0.65
  16 -10  -2    3.49    0.73
   3  -9  -2   70.16    5.82
   4  -9  -2   17.06    1.14
   5  -9  -2    2.53    0.35
   6  -9  -2    0.88    0.25
   7  -9  -2    3.98    0.41
   8  -9  -2   12.36    0.89
   9  -9  -2   10.25    0.99
  10  -9  -2    7.86    0.98
  11  -9  -2   13.84    1.33
  12  -9  -2   -0.29    0.52
  13  -9  -2    2.13    0.66
  14  -9  -2    4.15    0.78
  15  -9  -2    1.19    0.62
  16  -9  -2    0.56    0.60
   3  -8  -2    2.69    0.43
   4  -8  -2   22.92    1.96
   5  -8  -2   52.12    3.18
   6  -8  -2    4.12    0.39
   7  -8  -2    0.31    0.24
   8  -8  -2    1.13    0.32
   9  -8  -2    4.68    0.69
  10  -8  -2    1.19    0.53
  11  -8  -2   37.65    2.78
  12  -8  -2   16.23    1.39
  13  -8  -2    2.74    0.65
  14  -8  -2    5.97    0.82
  15  -8  -2    3.13    0.72
  16  -8  -2    2.84    0.74
   3  -7  -2   50.19    4.00
   4  -7  -2    4.70    0.45
   5  -7  -2    0.48    0.20
   6  -7  -2    2.69    0.32
   7  -7  -2   16.73    1.01
   8  -7  -2    0.72    0.31
   9  -7  -2   15.94    1.44
  10  -7  -2    7.47    0.92
  11  -7  -2   12.77    1.33
  12  -7  -2    0.56    0.54
  13  -7  -2   -0.27    0.52
  14  -7  -2   14.52    1.44
  15  -7  -2   -0.92    0.54
  16  -7  -2    6.60    0.92
   3  -6  -2    0.00    0.17
   4  -6  -2  110.63    6.58
   5  -6  -2   41.07    2.06
   6  -6  -2   -0.08    0.23
   7  -6  -2   38.54    2.32
   8  -6  -2   51.02    2.70
   9  -6  -2   60.54    4.18
  10  -6  -2    0.25    0.49
  11  -6  -2    0.62    0.53
  12  -6  -2    0.70    0.56
  13  -6  -2    2.59    0.65
  14  -6  -2    0.87    0.62
  15  -6  -2    7.56    0.97
  16  -6  -2    3.31    0.72
   1  -5  -2   14.64    1.44
   2  -5  -2   21.08    1.95
   3  -5  -2    1.61    0.18
   4  -5  -2  210.44    8.83
   5  -5  -2    0.50    0.19
   6  -5  -2  122.02    5.24
   7  -5  -2   41.73    2.19
   8  -5  -2    2.49    0.37
   9  -5  -2   15.02    1.27
  10  -5  -2    4.11    0.64
  11  -5  -2    1.76    0.59
  12  -5  -2    9.21    1.00
  13  -5  -2    2.15    0.64
  14  -5  -2    0.22    0.61
  15  -5  -2    3.13    0.70
  16  -5  -2    4.96    0.85
   0  -4  -2    8.62    0.87
   1  -4  -2    5.04    0.67
   2  -4  -2   21.65    1.91
   3  -4  -2   26.09    1.33
   4  -4  -2    7.03    0.41
   5  -4  -2   13.43    0.86
   6  -4  -2   17.91    1.02
   7  -4  -2   43.51    2.30
   8  -4  -2   20.35    1.19
   9  -4  -2    2.32    0.52
  10  -4  -2    0.85    0.51
  11  -4  -2   11.78    1.14
  12  -4  -2   29.27    2.10
  13  -4  -2    5.27    0.84
  14  -4  -2    0.30    0.61
  15  -4  -2    0.58    0.65
  -6  -3  -2   64.95    5.81
  -1  -3  -2   24.77    2.27
   0  -3  -2   15.47    1.43
   1  -3  -2   87.65    7.12
   2  -3  -2    9.77    1.08
   3  -3  -2   14.81    0.88
   4  -3  -2    4.90    0.43
   5  -3  -2   21.01    1.44
   6  -3  -2   -0.18    0.26
   7  -3  -2    3.96    0.43
   8  -3  -2   46.74    2.53
   9  -3  -2    1.04    0.47
  10  -3  -2    4.84    0.68
  11  -3  -2   29.68    2.10
  12  -3  -2   11.58    1.15
  13  -3  -2    3.01    0.69
  14  -3  -2    1.16    0.48
  15  -3  -2    5.29    0.68
  -6  -2  -2   50.26    4.64
  -5  -2  -2   41.11    3.75
  -4  -2  -2   16.64    1.70
  -2  -2  -2   22.17    1.86
  -1  -2  -2   11.83    1.08
   0  -2  -2    2.28    0.44
   1  -2  -2    4.61    0.33
   2  -2  -2    2.02    0.25
   3  -2  -2   84.59    4.18
   4  -2  -2   20.00    1.12
   5  -2  -2    1.71    0.31
   6  -2  -2  107.84    5.35
   7  -2  -2    0.64    0.26
   8  -2  -2    3.87    0.41
   9  -2  -2    3.57    0.61
  10  -2  -2    1.87    0.56
  11  -2  -2    5.38    0.74
  12  -2  -2    2.59    0.50
  13  -2  -2    1.93    0.52
  14  -2  -2    5.16    0.66
  15  -2  -2   -0.20    0.48
  -6  -1  -2   34.00    3.27
  -5  -1  -2  126.00   10.47
  -4  -1  -2   15.59    1.46
  -3  -1  -2    5.61    0.58
  -2  -1  -2   90.47    7.21
  -1  -1  -2    4.97    0.55
   0  -1  -2  137.82    8.19
   1  -1  -2  140.93    8.20
   2  -1  -2    4.53    0.40
   3  -1  -2   10.83    0.56
   4  -1  -2   25.74    1.16
   5  -1  -2  224.35    9.12
   6  -1  -2   41.28    1.87
   7  -1  -2    2.35    0.31
   8  -1  -2    0.23    0.34
   9  -1  -2   13.39    0.93
  10  -1  -2    5.68    0.59
  11  -1  -2    5.78    0.62
  12  -1  -2    3.69    0.58
  13  -1  -2    1.43    0.49
  14  -1  -2    6.07    0.71
  -6   0  -2    0.53    0.44
  -5   0  -2    0.62    0.32
  -4   0  -2    7.13    0.63
  -3   0  -2   16.45    0.85
  -2   0  -2    2.03    0.27
  -1   0  -2  140.00    8.20
   0   0  -2   62.35    3.66
   1   0  -2  140.29    8.21
   2   0  -2    2.67    0.34
   3   0  -2   15.72    0.84
   4   0  -2    7.25    0.44
   5   0  -2    0.08    0.24
   6   0  -2    0.29    0.22
   7   0  -2   16.32    1.00
   8   0  -2    2.08    0.40
   9   0  -2    9.75    0.77
  10   0  -2    3.71    0.55
  11   0  -2    3.95    0.56
  12   0  -2    0.49    0.46
  13   0  -2   -0.12    0.45
  14   0  -2    1.23    0.51
  -6   1  -2   42.45    3.62
  -5   1  -2  208.35   12.51
  -4   1  -2   26.48    1.34
  -3   1  -2   10.73    0.53
  -2   1  -2    3.68    0.37
  -1   1  -2  144.88    8.21
   0   1  -2  143.08    8.22
   1   1  -2    4.08    0.42
   2   1  -2   86.51    5.03
   3   1  -2    5.88    0.42
   4   1  -2   15.07    0.74
   5   1  -2  127.01    5.28
   6   1  -2   37.36    1.83
   7   1  -2    1.01    0.35
   8   1  -2    5.25    0.54
   9   1  -2   11.26    0.79
  10   1  -2   -0.20    0.40
  11   1  -2    4.15    0.57
  12   1  -2    3.40    0.56
  13   1  -2    2.66    0.58
  -5   2  -2    1.40    0.17
  -4   2  -2   20.91    0.95
  -3   2  -2   83.59    3.56
  -2   2  -2    2.24    0.26
  -1   2  -2    4.80    0.44
   0   2  -2    2.29    0.35
   1   2  -2   10.59    0.78
   2   2  -2   20.68    1.35
   3   2  -2   22.52    1.39
   4   2  -2   17.97    1.00
   5   2  -2   42.02    2.58
   6   2  -2   51.95    3.16
   7   2  -2   20.31    1.12
   8   2  -2    1.18    0.39
   9   2  -2   14.78    1.00
  10   2  -2    1.42    0.46
  11   2  -2    4.77    0.61
  12   2  -2   18.20    1.16
  13   2  -2    1.10    0.77
  -6   3  -2    0.04    0.09
  -5   3  -2   22.27    1.13
  -4   3  -2    5.56    0.36
  -3   3  -2   15.09    0.73
  -2   3  -2   12.51    0.66
  -1   3  -2   88.88    5.14
   0   3  -2   16.92    1.04
   1   3  -2   25.61    1.68
   2   3  -2    1.40    0.48
   3   3  -2    0.03    0.22
   4   3  -2   47.96    2.89
   5   3  -2    2.91    0.45
   6   3  -2   70.88    4.19
   7   3  -2    7.50    1.20
   8   3  -2   44.98    2.82
   9   3  -2   -0.04    0.51
  10   3  -2   -0.67    0.51
  11   3  -2   10.62    1.52
  12   3  -2    0.25    0.75
  -7   4  -2   48.41    2.80
  -6   4  -2   19.81    1.17
  -5   4  -2   14.10    0.72
  -4   4  -2    7.92    0.45
  -3   4  -2   26.52    1.16
  -2   4  -2   21.90    1.11
  -1   4  -2    5.22    0.53
   0   4  -2    7.64    0.63
   1   4  -2  217.60   12.51
   2   4  -2  113.16    9.39
   3   4  -2    5.64    0.46
   4   4  -2   23.73    1.46
   5   4  -2   17.53    1.19
   6   4  -2    0.32    0.36
   7   4  -2   16.95    1.47
   8   4  -2   20.82    2.09
   9   4  -2    1.46    0.58
  10   4  -2    0.22    0.71
  11   4  -2    3.51    0.89
  -9   5  -2   17.31    1.01
  -8   5  -2    2.70    0.27
  -7   5  -2   42.10    2.54
  -6   5  -2  127.16   10.57
  -5   5  -2    0.50    0.27
  -4   5  -2  213.36   10.55
  -3   5  -2    1.25    0.33
  -2   5  -2   23.77    1.92
  -1   5  -2   14.97    1.07
   0   5  -2    0.36    0.40
   1   5  -2   44.47    3.64
   2   5  -2    0.81    0.45
   3   5  -2   55.40    3.17
   4   5  -2    2.34    0.36
   5   5  -2    4.52    0.52
   6   5  -2    0.37    0.42
   7   5  -2   -0.39    0.44
   8   5  -2    3.41    0.63
   9   5  -2    5.04    0.98
  10   5  -2    1.20    0.75
  11   5  -2    1.69    0.74
 -10   6  -2    0.38    0.17
  -9   6  -2   76.91    5.78
  -8   6  -2   50.48    3.10
  -7   6  -2   34.21    3.16
  -6   6  -2    0.05    0.37
  -5   6  -2   42.80    2.16
  -4   6  -2  110.94    5.33
  -3   6  -2    0.28    0.24
  -2   6  -2   18.96    1.20
  -1   6  -2  123.67   10.49
   0   6  -2    0.32    0.49
   1   6  -2    3.00    0.62
   2   6  -2    4.07    0.72
   3   6  -2    0.16    0.57
   4   6  -2    0.76    0.26
   5   6  -2    2.83    0.41
   6   6  -2    1.03    0.45
   7   6  -2    1.05    0.68
   8   6  -2    5.33    0.99
   9   6  -2    0.80    0.75
  10   6  -2    2.82    0.84
 -11   7  -2   21.03    1.18
 -10   7  -2   11.58    1.00
  -9   7  -2   18.74    1.29
  -8   7  -2    0.76    0.33
  -7   7  -2   15.91    1.70
  -6   7  -2    2.08    0.54
  -5   7  -2    0.61    0.35
  -4   7  -2    4.70    0.41
  -3   7  -2   47.11    2.27
  -2   7  -2   45.94    2.64
  -1   7  -2   36.56    3.33
   0   7  -2   16.74    1.72
   1   7  -2    0.10    0.55
   2   7  -2    3.68    0.82
   3   7  -2    3.30    0.84
   4   7  -2   10.94    1.52
   5   7  -2    8.57    1.24
   6   7  -2    2.55    0.80
   7   7  -2   11.97    1.64
   8   7  -2    2.55    0.81
   9   7  -2    1.66    0.75
 -12   8  -2   24.44    1.76
 -11   8  -2   54.43    3.83
 -10   8  -2    1.82    0.50
  -9   8  -2    4.43    0.85
  -8   8  -2    2.26    0.41
  -7   8  -2    0.51    0.52
  -6   8  -2    5.12    0.79
  -5   8  -2   50.81    3.10
  -4   8  -2   21.49    1.16
  -3   8  -2    2.65    0.40
  -2   8  -2   57.68    3.26
  -1   8  -2    1.25    0.60
   0   8  -2    2.14    0.64
   1   8  -2   12.03    1.59
   2   8  -2    2.37    0.73
   3   8  -2   29.65    2.80
   4   8  -2   27.33    2.72
   5   8  -2    2.10    0.74
   6   8  -2    0.29    0.66
   7   8  -2   -0.47    0.60
   8   8  -2    3.53    0.89
 -12   9  -2    0.17    0.48
 -11   9  -2   18.24    1.60
 -10   9  -2   10.59    0.86
  -9   9  -2    9.87    0.86
  -8   9  -2   12.76    1.05
  -7   9  -2    4.53    0.79
  -6   9  -2    1.01    0.56
  -5   9  -2    2.27    0.43
  -4   9  -2   16.34    0.95
  -3   9  -2   71.98    4.12
  -2   9  -2   21.27    1.31
  -1   9  -2    4.98    0.92
   0   9  -2    9.74    1.31
   1   9  -2    4.38    0.88
   2   9  -2    4.43    0.92
   3   9  -2   10.32    1.37
   4   9  -2    6.18    1.02
   5   9  -2    0.93    0.65
   6   9  -2    8.60    1.23
   7   9  -2    9.11    1.28
 -12  10  -2    2.09    0.62
 -11  10  -2    0.70    0.41
 -10  10  -2    4.90    0.56
  -9  10  -2    4.14    0.56
  -8  10  -2    2.15    0.48
  -7  10  -2    3.81    0.83
  -6  10  -2    0.83    0.59
  -5  10  -2    3.83    0.53
  -4  10  -2    0.39    0.28
  -3  10  -2   10.52    0.82
  -2  10  -2    1.87    0.28
  -1  10  -2    9.56    1.35
   0  10  -2    3.31    0.85
   1  10  -2    7.03    1.02
   2  10  -2    2.07    0.73
   3  10  -2    3.45    0.83
   4  10  -2    0.20    0.63
   5  10  -2    1.31    0.70
   6  10  -2    2.86    0.81
 -13  11  -2    6.85    1.45
 -12  11  -2    3.98    0.81
 -11  11  -2    2.30    0.51
 -10  11  -2    5.09    0.62
  -9  11  -2    4.92    0.63
  -8  11  -2   27.82    1.99
  -7  11  -2   13.16    1.54
  -6  11  -2    2.16    0.71
  -5  11  -2    1.27    0.43
  -4  11  -2   15.79    1.83
  -3  11  -2   40.72    3.88
  -2  11  -2   15.33    1.83
  -1  11  -2    0.00    0.62
   0  11  -2    3.16    0.83
   1  11  -2    3.85    0.87
   2  11  -2    1.91    0.74
   3  11  -2    1.43    0.76
   4  11  -2    1.04    0.68
   5  11  -2    3.95    0.89
 -13  12  -2    3.61    0.82
 -12  12  -2    0.99    0.46
 -11  12  -2    4.19    0.60
 -10  12  -2    2.33    0.51
  -9  12  -2   11.80    1.02
  -8  12  -2   29.53    2.01
  -7  12  -2    8.85    1.26
  -6  12  -2    0.50    0.65
  -5  12  -2    0.07    0.62
  -4  12  -2   16.24    1.88
  -3  12  -2    0.18    0.60
  -2  12  -2    0.70    0.70
  -1  12  -2    4.66    0.97
   0  12  -2   -0.89    0.58
   1  12  -2    1.45    0.70
   2  12  -2    4.12    0.94
   3  12  -2    2.44    0.78
 -13  13  -2   -0.15    0.66
 -12  13  -2    0.93    0.46
 -11  13  -2    2.24    0.54
 -10  13  -2    3.36    0.55
  -9  13  -2    5.50    0.68
  -8  13  -2    1.57    0.50
  -7  13  -2    2.41    0.76
  -6  13  -2   -0.01    0.60
  -5  13  -2    3.80    0.87
  -4  13  -2    1.80    0.72
  -3  13  -2    0.45    0.63
  -2  13  -2    4.60    0.94
  -1  13  -2    2.40    0.80
   0  13  -2    0.63    0.68
   1  13  -2    6.56    1.05
   2  13  -2    0.81    0.65
 -13  14  -2    4.99    1.00
 -12  14  -2    5.69    0.69
 -11  14  -2    1.07    0.44
 -10  14  -2   -0.52    0.43
  -9  14  -2    0.33    0.44
  -8  14  -2    1.29    0.49
  -7  14  -2   16.13    1.36
  -6  14  -2    3.97    0.96
  -5  14  -2    5.49    1.06
  -4  14  -2   -0.45    0.64
  -2  14  -2   16.02    1.92
  -1  14  -2    2.40    0.83
   0  14  -2    1.47    0.72
 -13  15  -2    0.49    0.48
 -12  15  -2    5.33    0.72
 -11  15  -2    0.16    0.47
 -10  15  -2    2.51    0.58
  -9  15  -2    6.94    0.81
  -8  15  -2    0.69    0.48
  -7  15  -2    2.22    0.56
  -6  15  -2    1.93    0.54
  -5  15  -2    2.29    0.77
  -4  15  -2    3.61    0.99
  -3  15  -2   -0.48    0.65
  -2  15  -2    1.03    0.66
 -11  16  -2    5.74    0.73
 -10  16  -2    3.77    0.63
  -9  16  -2    7.29    0.82
  -8  16  -2    5.03    0.69
  -7  16  -2    1.56    0.55
  -6  16  -2    3.07    0.60
  -5  16  -2    1.13    0.53
  10 -16  -1   -0.40    0.80
  11 -16  -1    0.64    0.84
  12 -16  -1   14.14    1.24
   8 -15  -1    1.57    0.78
   9 -15  -1   15.67    1.70
  10 -15  -1    1.66    0.89
  11 -15  -1    9.47    1.01
  12 -15  -1    8.94    0.95
  13 -15  -1    1.49    0.66
   6 -14  -1   -0.30    0.59
   7 -14  -1   -0.07    0.65
   8 -14  -1   10.16    1.27
   9 -14  -1    8.51    1.22
  10 -14  -1    3.35    0.68
  11 -14  -1   11.49    1.10
  12 -14  -1    0.36    0.56
  13 -14  -1    0.35    0.57
  14 -14  -1    4.40    0.80
   6 -13  -1    2.19    0.70
   7 -13  -1    1.53    0.72
   8 -13  -1    2.66    0.85
   9 -13  -1    3.52    0.65
  10 -13  -1    0.63    0.53
  11 -13  -1    4.75    0.72
  12 -13  -1   27.88    2.01
  13 -13  -1    2.93    0.69
  14 -13  -1   13.60    1.28
  15 -13  -1    3.59    0.74
   5 -12  -1   10.05    1.09
   6 -12  -1    0.62    0.61
   7 -12  -1    9.62    1.16
   8 -12  -1    0.72    0.51
   9 -12  -1    9.21    0.89
  10 -12  -1   13.89    1.20
  11 -12  -1   23.39    1.75
  12 -12  -1    0.86    0.57
  13 -12  -1    0.78    0.57
  14 -12  -1    1.03    0.64
  15 -12  -1    1.48    0.62
  16 -12  -1    2.62    0.72
   4 -11  -1   99.95    7.61
   5 -11  -1   -0.63    0.50
   6 -11  -1   11.69    1.32
   7 -11  -1   22.61    1.59
   8 -11  -1   73.95    4.57
   9 -11  -1   72.71    4.48
  10 -11  -1    7.92    0.89
  11 -11  -1    0.80    0.54
  12 -11  -1    0.30    0.54
  13 -11  -1   -0.42    0.56
  14 -11  -1    1.01    0.65
  15 -11  -1   -0.08    0.58
  16 -11  -1   -0.66    0.52
   4 -10  -1    0.54    0.30
   5 -10  -1    0.04    0.29
   6 -10  -1    6.38    0.52
   7 -10  -1    1.17    0.44
   8 -10  -1   11.22    1.11
   9 -10  -1   36.06    2.69
  10 -10  -1   16.92    1.49
  11 -10  -1    1.45    0.58
  12 -10  -1    0.43    0.54
  13 -10  -1    4.00    0.79
  14 -10  -1    0.12    0.58
  15 -10  -1    0.81    0.63
  16 -10  -1    1.58    0.64
   2  -9  -1    1.19    0.43
   3  -9  -1    1.67    0.32
   4  -9  -1   -0.01    0.25
   5  -9  -1   18.56    1.09
   6  -9  -1   74.60    3.71
   7  -9  -1   16.60    1.11
   8  -9  -1    0.78    0.47
   9  -9  -1   20.03    1.67
  10  -9  -1   29.31    3.12
  11  -9  -1    3.74    0.69
  12  -9  -1    0.82    0.56
  13  -9  -1    9.56    1.05
  14  -9  -1    0.48    0.57
  15  -9  -1    2.23    0.67
  16  -9  -1    4.43    0.83
   1  -8  -1    8.12    0.91
   2  -8  -1    0.25    0.36
   3  -8  -1   16.95    1.12
   4  -8  -1    1.34    0.29
   5  -8  -1   52.72    2.81
   6  -8  -1  175.75    8.81
   7  -8  -1   12.33    0.82
   8  -8  -1   20.28    1.62
   9  -8  -1    3.98    0.66
  10  -8  -1   31.21    2.43
  11  -8  -1   10.13    1.05
  12  -8  -1    1.88    0.59
  13  -8  -1    1.72    0.62
  14  -8  -1    0.80    0.58
  15  -8  -1   -0.32    0.57
  16  -8  -1   16.09    1.44
   1  -7  -1    0.86    0.37
   2  -7  -1    4.55    0.39
   3  -7  -1   23.86    1.56
   4  -7  -1    2.94    0.33
   5  -7  -1  135.53    8.17
   6  -7  -1    0.18    0.24
   7  -7  -1   11.96    0.78
   8  -7  -1    6.43    0.56
   9  -7  -1    1.42    0.52
  10  -7  -1    3.48    0.64
  11  -7  -1   71.13    5.09
  12  -7  -1    7.26    0.90
  13  -7  -1    1.46    0.60
  14  -7  -1    1.12    0.58
  15  -7  -1   -0.08    0.56
  16  -7  -1    3.09    0.73
   1  -6  -1   12.24    1.14
   2  -6  -1   61.46    3.76
   3  -6  -1    3.07    0.31
   4  -6  -1   11.48    0.70
   5  -6  -1   42.24    1.90
   6  -6  -1   19.90    0.96
   7  -6  -1    0.36    0.23
   8  -6  -1    0.84    0.29
   9  -6  -1    1.51    0.30
  10  -6  -1    0.15    0.29
  11  -6  -1   -0.24    0.29
  12  -6  -1    0.25    0.53
  13  -6  -1    0.80    0.56
  14  -6  -1    6.29    0.88
  15  -6  -1   11.01    1.19
  16  -6  -1    0.20    0.58
   1  -5  -1   12.18    1.14
   2  -5  -1    5.03    0.42
   3  -5  -1  224.22   10.88
   4  -5  -1   35.22    1.58
   5  -5  -1   74.88    3.20
   6  -5  -1   11.34    0.62
   7  -5  -1    3.55    0.33
   8  -5  -1   15.74    0.98
   9  -5  -1    0.02    0.26
  10  -5  -1    0.27    0.28
  11  -5  -1    9.13    0.71
  12  -5  -1    8.11    0.89
  13  -5  -1    1.21    0.59
  14  -5  -1    6.12    0.85
  15  -5  -1    1.59    0.65
  16  -5  -1   -1.20    0.56
  -7  -4  -1   84.30    7.08
  -6  -4  -1    0.56    0.42
  -5  -4  -1    0.15    0.36
   1  -4  -1    0.41    0.27
   2  -4  -1    9.20    0.55
   3  -4  -1  322.35   13.52
   4  -4  -1   12.71    0.65
   5  -4  -1   12.56    0.63
   6  -4  -1   63.06    2.70
   7  -4  -1   24.49    1.34
   8  -4  -1    1.60    0.30
   9  -4  -1   17.70    1.11
  10  -4  -1    5.87    0.54
  11  -4  -1   20.24    1.18
  12  -4  -1    0.53    0.55
  13  -4  -1    1.41    0.60
  14  -4  -1    3.68    0.75
  15  -4  -1   11.20    1.15
  16  -4  -1   10.25    1.19
  -7  -3  -1    4.39    0.72
  -6  -3  -1    1.01    0.47
  -5  -3  -1   17.25    1.59
  -4  -3  -1   26.21    2.22
  -3  -3  -1    3.00    0.49
   1  -3  -1   66.81    3.87
   2  -3  -1   18.76    0.84
   3  -3  -1  282.24   11.65
   4  -3  -1    0.32    0.24
   5  -3  -1    4.77    0.41
   6  -3  -1    3.25    0.51
   7  -3  -1    3.04    0.34
   8  -3  -1   54.66    2.81
   9  -3  -1   77.70    3.84
  10  -3  -1    0.19    0.28
  11  -3  -1   71.84    3.76
  12  -3  -1    6.67    0.89
  13  -3  -1    0.34    0.55
  14  -3  -1   12.20    1.19
  15  -3  -1    7.00    0.98
  -7  -2  -1    1.36    0.53
  -6  -2  -1    0.89    0.43
  -5  -2  -1    4.02    0.46
  -4  -2  -1   64.21    3.79
  -3  -2  -1    5.00    0.62
   0  -2  -1   24.61    2.10
   1  -2  -1  418.62   33.55
   2  -2  -1   24.13    1.50
   3  -2  -1   65.12    3.86
   4  -2  -1    9.01    0.59
   5  -2  -1  222.42   10.79
   6  -2  -1   11.01    0.86
   7  -2  -1  136.17    6.46
   8  -2  -1  174.82    8.56
   9  -2  -1   18.51    1.06
  10  -2  -1   12.54    0.84
  11  -2  -1   74.28    4.59
  12  -2  -1   13.00    1.21
  13  -2  -1    4.13    0.75
  14  -2  -1   -0.70    0.60
  15  -2  -1    2.27    0.54
  -7  -1  -1    6.72    0.90
  -6  -1  -1    0.03    0.42
  -5  -1  -1   11.20    0.87
  -4  -1  -1   10.64    0.88
  -3  -1  -1   -0.08    0.26
  -2  -1  -1   68.32    5.43
  -1  -1  -1  401.15   33.23
   0  -1  -1  368.17   29.66
   1  -1  -1  364.60   21.07
   2  -1  -1  407.48   19.20
   3  -1  -1   18.87    1.00
   4  -1  -1  323.43   15.64
   5  -1  -1   36.93    1.83
   6  -1  -1   43.30    2.14
   7  -1  -1   -0.15    0.22
   8  -1  -1   12.97    0.81
   9  -1  -1    0.83    0.29
  10  -1  -1   40.53    2.08
  11  -1  -1    8.97    0.92
  12  -1  -1   25.95    1.88
  13  -1  -1   26.63    1.58
  14  -1  -1    0.79    0.47
  -6   0  -1   18.89    1.38
  -5   0  -1   71.83    4.53
  -4   0  -1   13.29    0.94
  -3   0  -1  280.85   16.49
  -2   0  -1   24.83    1.22
  -1   0  -1  367.15   21.07
   0   0  -1    0.01    0.14
   1   0  -1  355.10   17.12
   2   0  -1   24.31    1.06
   3   0  -1  283.12   13.52
   4   0  -1   13.41    0.74
   5   0  -1   74.03    3.60
   6   0  -1   20.61    1.10
   7   0  -1   11.40    0.74
   8   0  -1   22.49    1.22
   9   0  -1   21.75    1.19
  10   0  -1   18.70    1.40
  11   0  -1    0.23    0.43
  12   0  -1    0.36    0.43
  13   0  -1    3.24    0.57
  14   0  -1    4.36    0.64
  -6   1  -1   39.91    2.69
  -5   1  -1   34.76    2.25
  -4   1  -1  326.77   19.14
  -3   1  -1   18.64    1.23
  -2   1  -1  400.29   16.77
  -1   1  -1  362.36   14.83
   0   1  -1  364.49   21.08
   1   1  -1  409.32   19.36
   2   1  -1   66.72    2.75
   3   1  -1    0.53    0.19
   4   1  -1   11.97    0.61
   5   1  -1   11.26    0.61
   6   1  -1    0.60    0.22
   7   1  -1    7.16    0.48
   8   1  -1    4.60    0.41
   9   1  -1   30.23    1.57
  10   1  -1    0.70    0.42
  11   1  -1    0.65    0.45
  12   1  -1    0.12    0.45
  13   1  -1   16.65    1.14
  -6   2  -1   10.38    0.90
  -5   2  -1  213.06   13.35
  -4   2  -1    9.56    0.56
  -3   2  -1   63.48    3.19
  -2   2  -1   24.47    1.23
  -1   2  -1  405.52   23.51
   0   2  -1   24.33    1.51
   1   2  -1   19.75    0.97
   2   2  -1   11.12    0.58
   3   2  -1    4.92    0.33
   4   2  -1   64.70    2.69
   5   2  -1    4.12    0.33
   6   2  -1    0.57    0.25
   7   2  -1    0.77    0.33
   8   2  -1   35.16    1.81
   9   2  -1    4.85    0.54
  10   2  -1   -0.02    0.40
  11   2  -1   -0.32    0.43
  12   2  -1    0.37    0.48
  13   2  -1    3.00    0.71
  -7   3  -1    3.25    0.31
  -6   3  -1    3.62    0.29
  -5   3  -1    5.08    0.37
  -4   3  -1    0.39    0.25
  -3   3  -1  277.98   13.53
  -2   3  -1   18.76    0.99
  -1   3  -1   64.18    3.13
   0   3  -1  289.09   23.31
   1   3  -1  338.14   19.11
   2   3  -1  235.43   10.88
   3   3  -1    3.93    0.34
   4   3  -1   26.03    1.13
   5   3  -1   17.20    0.83
   6   3  -1    1.40    0.33
   7   3  -1    4.93    0.61
   8   3  -1   11.59    0.77
   9   3  -1    1.55    0.43
  10   3  -1    7.86    0.69
  11   3  -1    1.34    0.50
  12   3  -1    0.71    0.62
  -9   4  -1   22.24    1.67
  -8   4  -1    1.51    0.25
  -7   4  -1   25.69    2.15
  -6   4  -1   61.04    3.10
  -5   4  -1   11.41    0.60
  -4   4  -1   12.24    0.75
  -3   4  -1  330.48   15.65
  -2   4  -1    9.83    0.57
  -1   4  -1    0.05    0.17
   0   4  -1   14.21    0.87
   1   4  -1   39.23    2.21
   2   4  -1   12.37    0.71
   3   4  -1    2.89    0.33
   4   4  -1    1.35    0.34
   5   4  -1    0.22    0.32
   6   4  -1   -0.11    0.28
   7   4  -1   94.57    4.44
   8   4  -1    2.99    0.45
   9   4  -1   12.24    0.83
  10   4  -1    0.53    0.58
  11   4  -1   -0.67    0.66
  12   4  -1    1.51    0.85
 -10   5  -1    0.42    0.20
  -9   5  -1    0.11    0.23
  -8   5  -1   18.13    1.53
  -7   5  -1    3.18    0.50
  -6   5  -1   11.04    0.60
  -5   5  -1   71.25    3.62
  -4   5  -1   36.23    1.83
  -3   5  -1  225.19   10.79
  -2   5  -1    5.19    0.37
  -1   5  -1   13.36    0.85
   0   5  -1   79.09    4.49
   1   5  -1   47.98    2.15
   2   5  -1  142.61    8.15
   3   5  -1   60.33    3.44
   4   5  -1   19.82    1.33
   5   5  -1    0.49    0.35
   6   5  -1   -0.17    0.41
   7   5  -1    9.01    0.86
   8   5  -1    1.73    0.56
   9   5  -1   -0.16    0.55
  10   5  -1    1.46    0.76
  11   5  -1   -0.20    0.64
 -12   6  -1    0.18    0.18
 -11   6  -1    0.19    0.25
 -10   6  -1    0.42    0.31
  -9   6  -1    2.30    0.42
  -8   6  -1    0.40    0.36
  -7   6  -1    0.76    0.28
  -6   6  -1   19.14    1.09
  -5   6  -1   39.87    2.63
  -4   6  -1   12.35    0.72
  -3   6  -1    3.78    0.35
  -2   6  -1   65.48    3.09
  -1   6  -1   13.32    1.11
   0   6  -1   21.11    1.31
   1   6  -1    0.47    0.16
   2   6  -1  197.13   10.76
   3   6  -1   78.48    6.48
   4   6  -1    6.10    0.62
   5   6  -1   10.27    0.91
   6   6  -1    0.12    0.45
   7   6  -1    2.85    0.56
   8   6  -1   -0.67    0.63
   9   6  -1    2.57    0.86
  10   6  -1    0.36    0.67
 -12   7  -1    8.43    0.86
 -11   7  -1  105.05    7.57
 -10   7  -1    6.62    0.72
  -9   7  -1    1.00    0.43
  -8   7  -1    7.47    0.64
  -7   7  -1   11.75    0.90
  -6   7  -1    0.52    0.34
  -5   7  -1  130.56    6.46
  -4   7  -1    3.49    0.35
  -3   7  -1   25.21    1.30
  -2   7  -1    4.01    0.33
  -1   7  -1    0.33    0.26
   0   7  -1   11.72    0.86
   1   7  -1   14.65    0.73
   2   7  -1   22.46    1.05
   3   7  -1    0.34    0.31
   4   7  -1   24.84    1.49
   5   7  -1    8.39    0.77
   6   7  -1    0.88    0.46
   7   7  -1   -0.50    0.64
   8   7  -1   -0.83    0.57
   9   7  -1    4.95    1.05
 -12   8  -1    2.79    0.55
 -11   8  -1   12.60    1.17
  -9   8  -1    4.98    0.54
  -8   8  -1   23.15    1.48
  -7   8  -1   12.73    1.00
  -6   8  -1  178.23   10.48
  -5   8  -1   55.28    2.81
  -4   8  -1    1.26    0.29
  -3   8  -1   16.67    0.93
  -2   8  -1    0.85    0.33
  -1   8  -1    7.13    0.60
   0   8  -1   24.33    1.21
   1   8  -1    0.57    0.20
   2   8  -1   15.87    0.80
   3   8  -1   69.00    6.44
   4   8  -1    0.58    0.39
   5   8  -1    1.72    0.72
   6   8  -1    6.94    1.13
   7   8  -1    0.04    0.68
   8   8  -1   14.79    1.78
 -12   9  -1    1.47    0.59
 -11   9  -1    4.67    0.76
 -10   9  -1   30.92    2.57
  -9   9  -1   20.12    1.41
  -8   9  -1    0.62    0.37
  -7   9  -1   18.50    1.30
  -6   9  -1   77.40    4.69
  -5   9  -1   19.09    1.09
  -4   9  -1    0.28    0.26
  -3   9  -1    1.50    0.28
  -2   9  -1    1.37    0.38
  -1   9  -1    4.82    0.51
   0   9  -1   25.53    1.25
   1   9  -1   45.89    2.10
   2   9  -1   71.38    6.28
   3   9  -1    6.53    1.13
   4   9  -1    1.91    0.72
   5   9  -1    5.67    1.04
   6   9  -1   12.43    1.61
   7   9  -1    4.61    0.97
 -13  10  -1    8.45    1.05
 -12  10  -1    0.97    0.61
 -11  10  -1    1.48    0.60
 -10  10  -1   17.31    1.28
  -9  10  -1   39.28    2.52
  -8  10  -1   14.17    1.04
  -7  10  -1    0.48    0.38
  -6  10  -1    6.62    0.68
  -5  10  -1    0.04    0.31
  -4  10  -1    0.31    0.27
  -3  10  -1    4.76    0.41
  -2  10  -1   37.20    2.34
  -1  10  -1   33.93    2.05
   0  10  -1   21.10    1.33
   1  10  -1    8.99    1.20
   2  10  -1   12.29    1.56
   3  10  -1    0.89    0.67
   4  10  -1    6.15    1.01
   5  10  -1    1.07    0.67
   6  10  -1   -0.50    0.61
 -13  11  -1    0.14    0.62
 -12  11  -1   -0.46    0.56
 -11  11  -1    0.68    0.57
 -10  11  -1    8.09    0.79
  -9  11  -1   72.76    4.51
  -8  11  -1   73.66    4.60
  -7  11  -1   19.30    1.42
  -6  11  -1    8.37    0.86
  -5  11  -1    0.68    0.56
  -4  11  -1   81.29    4.10
  -3  11  -1   12.45    0.97
  -2  11  -1    4.27    0.87
  -1  11  -1    0.79    0.33
   0  11  -1    1.38    0.70
   1  11  -1   22.40    2.32
   2  11  -1    2.96    0.82
   3  11  -1    9.63    1.43
   4  11  -1    8.45    1.27
   5  11  -1    0.19    0.60
 -13  12  -1    0.31    0.66
 -12  12  -1    0.10    0.61
 -11  12  -1   24.42    1.73
 -10  12  -1   13.24    1.06
  -9  12  -1    7.58    0.77
  -8  12  -1   -0.05    0.42
  -7  12  -1    7.09    0.77
  -6  12  -1   -0.28    0.38
  -5  12  -1    7.98    1.17
  -4  12  -1    2.35    0.72
  -3  12  -1    0.93    0.69
  -2  12  -1    1.56    0.67
  -1  12  -1    1.76    0.73
   0  12  -1   -0.29    0.58
   1  12  -1   25.49    2.72
   2  12  -1   -0.21    0.56
   3  12  -1    6.19    1.16
   4  12  -1   12.35    1.58
 -13  13  -1    4.42    0.91
 -12  13  -1   30.38    2.62
 -11  13  -1    4.43    0.61
 -10  13  -1    0.59    0.43
  -9  13  -1    1.84    0.48
  -8  13  -1    1.88    0.50
  -7  13  -1    1.05    0.47
  -6  13  -1    2.01    0.50
  -5  13  -1    1.56    0.44
  -4  13  -1    8.82    1.35
  -3  13  -1    6.05    1.06
  -2  13  -1   -0.17    0.65
  -1  13  -1    0.55    0.68
   0  13  -1    3.55    0.83
   1  13  -1    1.12    0.66
   2  13  -1    4.05    0.84
 -13  14  -1    0.65    0.65
 -12  14  -1    0.55    0.47
 -11  14  -1   13.70    1.08
 -10  14  -1    3.71    0.59
  -9  14  -1    7.38    0.76
  -8  14  -1    6.50    0.77
  -7  14  -1   -0.35    0.44
  -6  14  -1    0.25    0.44
  -5  14  -1    0.57    0.49
  -4  14  -1   -0.22    0.45
  -3  14  -1    1.02    0.50
  -2  14  -1    0.33    0.71
   0  14  -1    2.97    0.86
 -13  15  -1    2.45    0.82
 -12  15  -1    8.46    0.86
 -11  15  -1    9.86    0.99
 -10  15  -1    2.06    0.52
  -9  15  -1   12.39    1.10
  -8  15  -1    0.09    0.44
  -7  15  -1   -0.28    0.45
  -6  15  -1    2.72    0.57
  -5  15  -1    0.03    0.46
  -4  15  -1   -0.52    0.46
  -3  15  -1    0.75    0.45
  -2  15  -1    2.20    0.54
 -12  16  -1   14.06    1.12
 -11  16  -1    0.00    0.45
 -10  16  -1    0.34    0.44
  -9  16  -1    3.05    0.59
  -8  16  -1   17.00    1.33
  -7  16  -1    6.34    0.75
  -6  16  -1    2.74    0.60
  -5  16  -1    0.30    0.47
  -4  16  -1    1.19    0.53
  10 -16   0    1.06    0.85
  11 -16   0    8.96    0.97
  12 -16   0    0.82    0.61
   9 -15   0    5.46    1.07
  10 -15   0    1.71    0.60
  11 -15   0   38.32    2.52
  12 -15   0    4.73    0.80
  13 -15   0    1.66    0.64
  14 -15   0    1.40    0.64
   6 -14   0   -0.14    0.62
   7 -14   0    1.95    0.79
   8 -14   0    4.35    0.92
   9 -14   0    1.69    0.57
  10 -14   0    4.40    0.71
  11 -14   0   12.40    1.13
  12 -14   0    2.02    0.64
  13 -14   0   -0.43    0.53
  14 -14   0    8.45    0.95
  15 -14   0    7.82    1.00
   5 -13   0    0.92    0.78
   6 -13   0    7.46    1.08
   7 -13   0    1.75    0.74
   8 -13   0   58.87    3.36
   9 -13   0  186.81   10.51
  10 -13   0    5.05    0.73
  11 -13   0   18.93    1.46
  12 -13   0    5.83    0.82
  13 -13   0   35.33    2.54
  14 -13   0    0.66    0.62
  15 -13   0   19.67    1.66
   4 -12   0    0.41    0.45
   5 -12   0    1.78    0.64
   6 -12   0   52.54    3.96
   7 -12   0    6.24    0.70
   8 -12   0   37.60    2.39
   9 -12   0  104.74    6.23
  10 -12   0   52.73    3.42
  11 -12   0   10.46    1.04
  12 -12   0    4.08    0.79
  13 -12   0   18.70    1.61
  14 -12   0    1.95    0.68
  15 -12   0    6.33    0.91
  16 -12   0    8.40    1.01
   3 -11   0   44.06    3.34
   4 -11   0   17.62    1.51
   5 -11   0  106.01    7.62
   6 -11   0   12.31    0.96
   7 -11   0   15.83    1.21
   8 -11   0   18.82    1.50
   9 -11   0   45.33    2.90
  10 -11   0    0.45    0.54
  11 -11   0    5.71    0.78
  12 -11   0   11.37    1.11
  13 -11   0    4.36    0.83
  14 -11   0    7.96    1.01
  15 -11   0    3.75    0.76
  16 -11   0    1.42    0.66
   3 -10   0   62.81    4.62
   4 -10   0    0.24    0.45
   5 -10   0   62.96    3.75
   6 -10   0    0.52    0.42
   7 -10   0   96.26    6.01
   8 -10   0  232.90   13.92
   9 -10   0    0.50    0.51
  10 -10   0   50.70    3.40
  11 -10   0   22.63    1.77
  12 -10   0    1.95    0.64
  13 -10   0   11.07    1.16
  14 -10   0   16.55    1.48
  15 -10   0   -0.63    0.55
  16 -10   0    5.07    0.89
   2  -9   0   34.66    2.69
   3  -9   0   36.03    2.89
   4  -9   0   36.33    2.32
   5  -9   0    2.85    0.70
   6  -9   0   11.96    0.93
   7  -9   0   30.50    2.02
   8  -9   0   48.81    3.15
   9  -9   0   47.76    3.21
  10  -9   0    7.40    0.96
  11  -9   0    1.14    0.55
  12  -9   0    1.86    0.63
  13  -9   0    9.40    1.11
  14  -9   0    0.29    0.59
  15  -9   0    0.50    0.62
  16  -9   0    0.59    0.63
   2  -8   0   13.35    0.89
   3  -8   0    9.43    0.71
   4  -8   0   -0.04    0.24
   5  -8   0    0.84    0.32
   6  -8   0  222.51   10.91
   7  -8   0    3.58    0.56
   8  -8   0   19.69    1.47
   9  -8   0    9.98    1.04
  10  -8   0   10.79    1.07
  11  -8   0   35.36    2.55
  12  -8   0   -0.73    0.51
  13  -8   0    0.55    0.57
  14  -8   0    0.32    0.56
  15  -8   0   18.49    1.69
  16  -8   0    1.19    0.67
   1  -7   0    0.16    0.16
   2  -7   0   10.92    0.78
   3  -7   0    0.56    0.23
   4  -7   0   43.79    2.29
   5  -7   0   28.62    1.84
   6  -7   0  159.35    7.89
   7  -7   0    1.88    0.37
   8  -7   0    4.21    0.60
   9  -7   0   28.02    2.06
  10  -7   0   46.44    3.39
  11  -7   0   11.46    1.19
  12  -7   0    2.32    0.62
  13  -7   0    7.59    0.89
  14  -7   0    1.01    0.62
  15  -7   0   41.56    3.94
  16  -7   0    0.74    0.66
  -1  -6   0  155.99   13.66
   0  -6   0    8.72    1.02
   1  -6   0   84.24    4.96
   2  -6   0    0.66    0.25
   3  -6   0   65.41    3.19
   4  -6   0   62.69    3.08
   5  -6   0   22.73    1.23
   6  -6   0    8.58    0.62
   7  -6   0    0.21    0.26
   8  -6   0   12.12    1.03
   9  -6   0   28.47    2.17
  10  -6   0    0.41    0.49
  11  -6   0   79.83    5.44
  12  -6   0   35.72    2.85
  13  -6   0    1.58    0.63
  14  -6   0    2.33    0.68
  15  -6   0    4.30    0.77
  16  -6   0    0.91    0.59
  -6  -5   0  100.67    7.52
  -5  -5   0   68.67    5.17
  -4  -5   0    3.37    0.39
  -1  -5   0   22.34    2.10
   0  -5   0   12.52    1.26
   1  -5   0    4.63    0.36
   2  -5   0    0.22    0.20
   3  -5   0  221.17   10.78
   4  -5   0  688.76   32.49
   5  -5   0   12.62    0.77
   6  -5   0   82.54    4.10
   7  -5   0   11.70    0.74
   8  -5   0    7.24    0.82
   9  -5   0   33.95    2.36
  10  -5   0   55.21    3.79
  11  -5   0   10.66    1.03
  12  -5   0    4.46    0.74
  13  -5   0   49.71    3.39
  14  -5   0    1.01    0.61
  15  -5   0    1.32    0.63
  16  -5   0    8.08    1.02
  -7  -4   0   13.45    1.47
  -6  -4   0   -0.01    0.36
  -5  -4   0   39.06    3.16
  -4  -4   0   -0.08    0.25
  -3  -4   0   51.34    3.87
  -1  -4   0  688.37   56.27
   0  -4   0  324.81   26.25
   1  -4   0   33.91    2.02
   2  -4   0  205.03    9.96
   3  -4   0   49.86    2.49
   4  -4   0  316.93   15.17
   5  -4   0    3.98    0.39
   6  -4   0    0.20    0.22
   7  -4   0    0.84    0.20
   8  -4   0    0.08    0.20
   9  -4   0    3.04    0.33
  10  -4   0    0.47    0.23
  11  -4   0   14.48    0.94
  12  -4   0   36.48    2.43
  13  -4   0  174.97   10.54
  14  -4   0    3.69    0.74
  15  -4   0   34.56    2.53
  16  -4   0   -1.76    0.54
  -7  -3   0   55.07    4.68
  -6  -3   0   32.53    2.07
  -5  -3   0    9.42    0.72
  -4  -3   0    0.51    0.24
  -3  -3   0   70.87    5.47
  -2  -3   0  239.64   18.60
  -1  -3   0   51.85    4.32
   0  -3   0    1.19    0.14
   1  -3   0  102.30    4.98
   2  -3   0  943.76   45.37
   3  -3   0    1.18    0.24
   4  -3   0   34.74    1.46
   5  -3   0    0.23    0.18
   6  -3   0   61.95    3.20
   7  -3   0   43.99    2.31
   8  -3   0    0.69    0.22
   9  -3   0   10.19    0.69
  10  -3   0   96.21    4.89
  11  -3   0   20.74    1.19
  12  -3   0  101.31    6.26
  13  -3   0    3.23    0.70
  14  -3   0   10.19    1.09
  15  -3   0    4.71    0.83
  -7  -2   0   29.30    2.81
  -6  -2   0   12.91    0.95
  -5  -2   0   11.25    0.82
  -4  -2   0    0.43    0.26
  -3  -2   0    0.61    0.23
  -2  -2   0  204.29   12.19
  -1  -2   0  978.19   55.55
   0  -2   0  773.32   62.20
   1  -2   0   31.25    1.50
   2  -2   0  758.03   35.91
   3  -2   0  107.15    5.00
   4  -2   0  212.76    9.98
   5  -2   0  224.00   10.79
   6  -2   0   62.07    3.08
   7  -2   0   28.10    1.51
   8  -2   0  225.70   10.91
   9  -2   0   31.87    1.61
  10  -2   0  235.95   11.33
  11  -2   0   43.01    2.92
  12  -2   0   54.36    3.43
  13  -2   0   17.44    1.44
  14  -2   0    3.43    0.70
  15  -2   0    0.72    0.67
  -7  -1   0    4.27    0.69
  -6  -1   0    0.32    0.30
  -5  -1   0   82.08    4.99
  -4  -1   0    3.94    0.41
  -3  -1   0   33.56    2.05
  -2  -1   0  103.99    6.10
  -1  -1   0   30.27    1.83
   0  -1   0  159.25   12.54
   1  -1   0  154.35    6.27
   2  -1   0   30.40    1.51
   3  -1   0  961.33   45.37
   4  -1   0   51.00    2.49
   5  -1   0  680.99   32.48
   6  -1   0   23.84    1.21
   7  -1   0  169.86    7.88
   8  -1   0    3.58    0.36
   9  -1   0   50.27    2.54
  10  -1   0    1.70    0.30
  11  -1   0    0.97    0.57
  12  -1   0   11.79    1.05
  13  -1   0    6.29    0.84
  14  -1   0    0.28    0.61
  15  -1   0   -0.02    0.63
  -7   0   0    2.18    0.55
  -6   0   0    9.61    0.75
  -5   0   0   12.18    0.92
  -4   0   0  312.62   18.57
  -3   0   0    1.07    0.20
  -2   0   0  738.66   35.90
  -1   0   0  148.88    7.24
   1   0   0  149.22    7.24
   2   0   0  747.22   35.90
   3   0   0    1.19    0.19
   4   0   0  319.99   15.15
   5   0   0   13.29    0.74
   6   0   0   10.15    0.60
   7   0   0    2.87    0.31
   8   0   0   20.41    1.13
   9   0   0   51.92    2.58
  10   0   0   53.85    2.74
  11   0   0    5.04    0.75
  12   0   0    5.70    0.77
  13   0   0   41.21    3.55
  14   0   0    7.49    0.75
  -7   1   0  153.78   13.67
  -6   1   0   22.33    1.20
  -5   1   0  672.89   32.48
  -4   1   0   50.42    2.48
  -3   1   0  946.69   45.37
  -2   1   0   30.86    1.51
  -1   1   0  151.47    6.27
   0   1   0  156.48   12.54
   1   1   0   30.76    1.50
   2   1   0  103.70    6.10
   3   1   0   34.34    1.67
   4   1   0    3.88    0.33
   5   1   0   87.70    4.08
   6   1   0    0.58    0.26
   7   1   0    4.52    0.42
   8   1   0   12.87    0.80
   9   1   0   12.23    0.76
  10   1   0   26.26    1.77
  11   1   0   11.76    1.10
  12   1   0   21.29    1.31
  13   1   0    1.13    0.48
  14   1   0    8.03    0.97
  -8   2   0  245.31   18.80
  -7   2   0   30.71    2.49
  -6   2   0   59.38    3.07
  -5   2   0  221.57   10.78
  -4   2   0  211.34    9.97
  -3   2   0  102.85    5.00
  -2   2   0  757.39   31.10
  -1   2   0   31.97    1.51
   0   2   0  793.40   62.20
   1   2   0  952.06   45.36
   2   2   0  210.76    9.96
   3   2   0    0.02    0.21
   4   2   0   -0.09    0.22
   5   2   0   11.51    0.68
   6   2   0   13.84    0.80
   7   2   0   33.21    2.01
   8   2   0   13.85    0.83
   9   2   0    0.62    0.28
  10   2   0    1.31    0.43
  11   2   0    6.91    0.69
  12   2   0    1.83    0.52
  13   2   0   22.01    1.69
 -10   3   0  117.86    8.35
  -9   3   0   10.38    1.04
  -8   3   0    1.15    0.28
  -7   3   0   45.60    3.88
  -6   3   0   64.58    3.20
  -5   3   0    0.20    0.21
  -4   3   0   32.03    1.68
  -3   3   0    1.28    0.20
  -2   3   0  952.06   45.37
  -1   3   0  104.97    4.98
   0   3   0    1.27    0.15
   1   3   0   51.79    3.04
   2   3   0  230.75   10.77
   3   3   0   66.51    3.19
   4   3   0    0.30    0.22
   5   3   0    9.80    0.53
   6   3   0   34.75    1.50
   7   3   0   55.21    2.38
   8   3   0   39.15    2.04
   9   3   0    2.41    0.47
  10   3   0   14.01    0.95
  11   3   0    9.48    0.80
  12   3   0    7.91    0.94
 -11   4   0   17.97    1.44
 -10   4   0    0.71    0.30
  -9   4   0    2.89    0.43
  -8   4   0    0.11    0.28
  -7   4   0    0.55    0.32
  -6   4   0    0.71    0.24
  -5   4   0    3.94    0.35
  -4   4   0  312.21   13.13
  -3   4   0   51.47    2.16
  -2   4   0  207.43    9.97
  -1   4   0   33.81    1.66
   0   4   0  340.11   26.26
   1   4   0  687.55   56.27
   2   4   0   66.29    3.77
   3   4   0   49.06    2.28
   4   4   0   -0.12    0.20
   5   4   0   38.01    1.87
   6   4   0    0.65    0.30
   7   4   0   16.23    0.94
   8   4   0    0.68    0.50
   9   4   0   13.16    0.90
  10   4   0   18.94    1.49
  11   4   0    3.38    0.72
  12   4   0    7.29    1.26
 -12   5   0    5.57    0.66
 -11   5   0   11.72    1.08
 -10   5   0   63.53    5.17
  -9   5   0   38.31    3.15
  -8   5   0    9.31    0.96
  -7   5   0   10.15    1.10
  -6   5   0   79.67    4.09
  -5   5   0   12.90    0.65
  -4   5   0  683.46   28.13
  -3   5   0  225.64    9.34
  -2   5   0    0.96    0.22
  -1   5   0    4.08    0.31
   0   5   0   13.26    0.90
   1   5   0   23.45    2.15
   2   5   0   31.10    1.84
   3   5   0    0.95    0.34
   4   5   0    2.73    0.45
   5   5   0   64.36    3.70
   6   5   0   90.08    5.41
   7   5   0    2.86    0.40
   8   5   0    1.67    0.41
   9   5   0   -0.65    0.52
  10   5   0    0.13    0.57
  11   5   0    1.41    0.78
 -12   6   0   49.06    3.79
 -11   6   0   97.85    7.51
 -10   6   0   -0.46    0.36
  -9   6   0   36.59    2.92
  -8   6   0   11.35    1.28
  -7   6   0    0.57    0.36
  -6   6   0    8.22    0.52
  -5   6   0   23.31    1.06
  -4   6   0   64.77    2.67
  -3   6   0   67.02    3.20
  -2   6   0    0.94    0.22
  -1   6   0   87.09    4.06
   0   6   0   10.87    0.76
   1   6   0  172.66    9.65
   2   6   0  235.90   13.35
   3   6   0   12.79    0.88
   4   6   0    0.36    0.38
   5   6   0   10.13    0.95
   6   6   0   44.72    2.81
   7   6   0    8.70    0.83
   8   6   0    0.43    0.53
   9   6   0   -0.07    0.60
  10   6   0    7.46    1.23
 -13   7   0    7.62    0.88
 -12   7   0    3.57    0.56
 -11   7   0   15.28    1.47
 -10   7   0   57.70    4.68
  -7   7   0    1.87    0.51
  -6   7   0  162.30    9.65
  -5   7   0   28.87    1.31
  -4   7   0   45.50    1.99
  -3   7   0    0.73    0.25
  -2   7   0   11.13    0.66
  -1   7   0   -0.13    0.16
   0   7   0    3.39    0.42
   1   7   0    4.47    0.48
   2   7   0   30.81    1.95
   3   7   0  104.40    5.98
   4   7   0   17.18    1.18
   5   7   0    6.61    0.69
   6   7   0    1.22    0.50
   7   7   0    2.39    0.55
   8   7   0   23.17    2.33
   9   7   0    2.58    0.85
 -13   8   0    1.62    0.59
 -12   8   0    0.03    0.51
 -11   8   0   42.89    3.45
 -10   8   0   13.65    1.36
  -9   8   0   13.19    1.34
  -8   8   0   19.47    1.37
  -7   8   0    3.77    0.46
  -6   8   0  221.14   13.35
  -5   8   0    1.04    0.30
  -4   8   0   -0.03    0.26
  -3   8   0    9.39    0.72
  -2   8   0   13.53    0.75
  -1   8   0    3.93    0.48
   0   8   0   21.85    1.38
   1   8   0   53.06    2.52
   2   8   0  247.29   13.87
   3   8   0   23.92    1.44
   4   8   0   32.40    3.29
   5   8   0   52.01    4.72
   6   8   0    3.00    0.85
   7   8   0   39.27    3.87
   8   8   0    2.71    0.80
 -13   9   0   18.66    1.50
 -12   9   0    4.38    0.77
 -11   9   0    1.42    0.58
 -10   9   0   11.87    1.27
  -9   9   0   49.55    4.43
  -8   9   0   47.60    3.08
  -7   9   0   28.72    1.95
  -6   9   0   10.77    0.86
  -5   9   0    2.90    0.37
  -4   9   0   36.31    1.63
  -3   9   0   32.50    1.70
  -2   9   0   31.51    1.60
  -1   9   0   13.85    0.99
   0   9   0   53.08    3.15
   1   9   0    1.52    0.33
   2   9   0   48.72    2.81
   3   9   0  101.16    8.76
   4   9   0  166.58   14.81
   5   9   0    1.13    0.68
   6   9   0    3.01    0.82
   7   9   0    0.90    0.68
 -14  10   0   20.62    2.32
 -13  10   0   15.50    1.52
 -12  10   0    1.98    0.70
 -11  10   0   27.02    2.37
 -10  10   0   56.17    4.71
  -9  10   0    0.67    0.38
  -8  10   0  227.33   13.87
  -7  10   0   95.11    5.98
  -6  10   0    0.11    0.36
  -5  10   0   57.10    3.05
  -4  10   0    0.64    0.29
  -3  10   0   53.32    2.35
  -2  10   0   12.27    0.99
  -1  10   0   12.17    0.93
   0  10   0   57.06    3.34
   1  10   0    1.14    0.41
   2  10   0   56.49    3.31
   3  10   0    4.12    0.89
   4  10   0    4.09    0.92
   5  10   0    3.08    0.80
   6  10   0    0.84    0.71
 -14  11   0   10.77    1.30
 -13  11   0    7.58    1.04
 -12  11   0   12.95    1.40
 -11  11   0    5.76    0.88
 -10  11   0    1.32    0.43
  -9  11   0   43.36    2.82
  -8  11   0   19.76    1.43
  -7  11   0   14.13    1.15
  -6  11   0   10.38    0.91
  -5  11   0   82.85    4.39
  -4  11   0   13.94    0.88
  -3  11   0   37.83    2.41
  -2  11   0    1.86    0.43
  -1  11   0   23.12    2.38
   0  11   0    5.86    0.63
   1  11   0    8.61    1.28
   2  11   0   16.18    1.89
   3  11   0    9.99    1.39
   4  11   0   34.01    3.40
   5  11   0    8.31    0.89
 -14  12   0    3.55    0.86
 -13  12   0   24.85    2.16
 -12  12   0    4.39    0.85
 -11  12   0    9.93    1.28
 -10  12   0   52.22    3.32
  -9  12   0  104.44    6.18
  -8  12   0   37.40    2.34
  -7  12   0    5.08    0.63
  -6  12   0   43.77    2.79
  -5  12   0    2.36    0.50
  -4  12   0   -0.52    0.40
  -3  12   0    2.23    0.50
  -2  12   0    1.56    0.51
  -1  12   0   10.46    0.99
   0  12   0    4.02    0.63
   1  12   0    4.26    0.67
   2  12   0    3.08    0.59
   3  12   0    5.35    0.70
   4  12   0   -0.54    0.46
 -14  13   0    1.42    0.76
 -13  13   0   41.32    3.49
 -12  13   0    6.38    0.98
 -11  13   0   17.88    1.90
 -10  13   0    4.37    0.63
  -9  13   0  175.86   10.46
  -8  13   0   52.39    3.30
  -7  13   0    1.09    0.46
  -6  13   0    7.61    0.78
  -5  13   0    0.98    0.49
  -4  13   0   11.53    1.04
  -3  13   0   11.64    1.06
  -2  13   0    6.00    0.72
  -1  13   0   18.93    1.49
   0  13   0   36.29    2.47
   1  13   0    0.14    0.46
   2  13   0    1.92    0.53
 -14  14   0    7.63    1.17
 -13  14   0   -0.01    0.66
 -12  14   0    2.37    0.76
 -11  14   0   12.76    1.05
 -10  14   0    3.61    0.62
  -9  14   0    0.72    0.45
  -8  14   0    2.44    0.52
  -7  14   0    2.62    0.55
  -6  14   0    0.69    0.47
  -5  14   0   -0.41    0.44
  -4  14   0   17.31    1.35
  -3  14   0    8.76    0.87
  -2  14   0    2.10    0.54
  -1  14   0    1.16    0.49
   0  14   0    6.50    0.80
   1  14   0    0.86    0.49
 -14  15   0    1.46    0.78
 -13  15   0    3.99    0.92
 -12  15   0    5.87    1.00
 -11  15   0   40.73    2.44
 -10  15   0    2.36    0.53
  -9  15   0    3.42    0.60
  -8  15   0   44.67    2.74
  -7  15   0   25.08    1.62
  -6  15   0    0.22    0.46
  -5  15   0   -1.05    0.43
  -4  15   0    2.90    0.60
  -3  15   0    6.67    0.80
  -2  15   0   20.38    1.53
  -1  15   0    9.99    1.31
 -12  16   0    0.16    0.68
 -11  16   0    8.69    0.89
 -10  16   0    0.83    0.48
  -9  16   0    2.40    0.56
  -8  16   0    2.07    0.55
  -7  16   0    1.18    0.53
  -6  16   0    8.52    0.86
  -5  16   0    1.31    0.55
  -4  16   0    8.89    0.89
  10 -16   1    0.40    0.53
  11 -16   1    0.89    0.60
  12 -16   1   12.33    1.21
   8 -15   1    1.04    0.80
   9 -15   1   15.43    1.21
  10 -15   1    1.86    0.61
  11 -15   1   13.51    1.14
  12 -15   1    8.09    0.99
  13 -15   1    1.60    0.71
   6 -14   1   -1.17    0.57
   7 -14   1    0.88    0.70
   8 -14   1    8.54    0.84
   9 -14   1    5.31    0.78
  10 -14   1    4.21    0.71
  11 -14   1   13.14    1.19
  12 -14   1    0.32    0.58
  13 -14   1    1.03    0.63
  14 -14   1    3.43    0.78
   5 -13   1    1.54    0.63
   6 -13   1    1.58    0.73
   7 -13   1    0.61    0.49
   8 -13   1    2.76    0.58
   9 -13   1    1.75    0.60
  10 -13   1   -0.61    0.53
  11 -13   1    4.40    0.76
  12 -13   1   25.56    1.96
  13 -13   1    3.61    0.76
  14 -13   1   15.16    1.41
  15 -13   1    2.08    0.70
   3 -12   1    1.45    0.39
   4 -12   1    2.86    0.62
   5 -12   1   10.35    1.15
   6 -12   1    0.10    0.44
   7 -12   1    8.61    0.81
   8 -12   1    1.39    0.52
   9 -12   1    9.45    0.91
  10 -12   1   12.72    1.18
  11 -12   1   27.63    1.89
  12 -12   1    0.93    0.59
  13 -12   1   -0.39    0.57
  14 -12   1    1.07    0.68
  15 -12   1    0.08    0.63
  16 -12   1    3.00    0.74
   2 -11   1    4.85    0.48
   3 -11   1   14.55    1.24
   5 -11   1    0.03    0.39
   6 -11   1   11.90    0.92
   7 -11   1   21.01    1.47
   8 -11   1   79.40    4.65
   9 -11   1   71.85    4.57
  10 -11   1    8.24    0.93
  11 -11   1    1.46    0.63
  12 -11   1    0.57    0.58
  13 -11   1   -0.06    0.59
  14 -11   1    1.03    0.65
  15 -11   1   -0.71    0.59
  16 -11   1    0.10    0.60
   2 -10   1   44.58    3.19
   3 -10   1    5.46    0.70
   4 -10   1   -0.22    0.48
   5 -10   1   -0.03    0.37
   6 -10   1    6.63    0.69
   7 -10   1    0.44    0.45
   8 -10   1   12.41    1.09
   9 -10   1   39.21    2.62
  10 -10   1   19.36    1.44
  11 -10   1    1.32    0.59
  12 -10   1    0.56    0.58
  13 -10   1    5.49    0.87
  14 -10   1    0.68    0.62
  15 -10   1    0.24    0.61
  16 -10   1    1.00    0.66
   1  -9   1    5.91    0.51
   2  -9   1    1.84    0.40
   3  -9   1    1.39    0.46
   4  -9   1    0.15    0.31
   5  -9   1   21.83    1.39
   6  -9   1   82.76    4.72
   7  -9   1   18.82    1.38
   8  -9   1    0.96    0.49
   9  -9   1   20.57    1.54
  10  -9   1   23.24    1.91
  11  -9   1    3.62    0.70
  12  -9   1    0.52    0.60
  13  -9   1    8.75    1.04
  14  -9   1   -0.29    0.59
  15  -9   1    2.49    0.71
  16  -9   1    6.86    0.91
   1  -8   1    7.34    0.72
   2  -8   1    0.74    0.37
   3  -8   1   16.52    1.13
   4  -8   1    1.67    0.37
   5  -8   1   55.07    3.47
   6  -8   1  182.17   10.50
   7  -8   1   15.08    1.10
   8  -8   1   21.43    1.56
   9  -8   1    4.44    0.66
  10  -8   1   30.70    2.26
  11  -8   1    9.71    1.01
  12  -8   1    2.27    0.64
  13  -8   1    0.97    0.60
  14  -8   1   -0.44    0.55
  15  -8   1    0.27    0.59
  16  -8   1   14.85    1.35
   0  -7   1   13.05    1.06
   1  -7   1    1.07    0.30
   2  -7   1    5.06    0.57
   3  -7   1   25.23    1.30
   4  -7   1    3.11    0.33
   5  -7   1  129.48    7.93
   6  -7   1    0.31    0.39
   7  -7   1   11.10    0.98
   8  -7   1    6.70    0.75
   9  -7   1    1.03    0.45
  10  -7   1    3.94    0.68
  11  -7   1   75.54    7.76
  12  -7   1    7.38    0.92
  13  -7   1    0.85    0.60
  14  -7   1   -0.02    0.57
  15  -7   1   -0.68    0.55
  16  -7   1    4.72    0.83
  -5  -6   1   12.53    1.05
  -4  -6   1    7.11    0.60
   0  -6   1   23.23    1.76
   1  -6   1   11.60    0.81
   2  -6   1   63.30    3.08
   3  -6   1    3.57    0.35
   4  -6   1   11.53    0.71
   5  -6   1   43.09    2.16
   6  -6   1   19.76    1.13
   7  -6   1    0.70    0.44
   8  -6   1    0.29    0.45
   9  -6   1    1.85    0.51
  10  -6   1    0.10    0.50
  11  -6   1   -0.23    0.50
  12  -6   1    0.39    0.56
  13  -6   1    0.96    0.60
  14  -6   1    6.39    0.91
  15  -6   1   12.63    1.24
  16  -6   1   -0.39    0.57
  -6  -5   1    0.06    0.37
  -5  -5   1   -0.16    0.31
  -4  -5   1   21.69    1.76
  -3  -5   1   65.39    4.76
  -2  -5   1  153.78   11.44
  -1  -5   1   45.81    2.14
   0  -5   1   78.82    4.49
   1  -5   1   12.99    0.85
   2  -5   1    5.08    0.37
   3  -5   1  230.09   10.79
   4  -5   1   37.44    1.84
   5  -5   1   75.44    3.63
   6  -5   1   11.84    0.74
   7  -5   1    3.55    0.55
   8  -5   1   15.86    1.28
   9  -5   1    0.39    0.40
  10  -5   1    0.19    0.48
  11  -5   1    9.92    1.02
  12  -5   1    6.63    0.86
  13  -5   1    1.84    0.63
  14  -5   1    5.04    0.85
  15  -5   1    0.92    0.61
  16  -5   1   -0.63    0.62
  -7  -4   1   88.68    7.61
  -6  -4   1    0.12    0.29
  -5  -4   1   -0.05    0.25
  -4  -4   1    1.01    0.37
  -3  -4   1    3.60    0.44
  -2  -4   1   12.96    0.82
  -1  -4   1   37.40    2.20
   0  -4   1   13.60    0.89
   1  -4   1    0.22    0.17
   2  -4   1    9.71    0.57
   3  -4   1  333.23   15.65
   4  -4   1   13.79    0.78
   5  -4   1   12.42    0.74
   6  -4   1   60.36    3.14
   7  -4   1   24.64    1.68
   8  -4   1    1.41    0.47
   9  -4   1   18.54    1.45
  10  -4   1    5.51    0.74
  11  -4   1   20.49    1.63
  12  -4   1    0.65    0.55
  13  -4   1    2.56    0.67
  14  -4   1    3.64    0.76
  15  -4   1   10.54    1.08
  16  -4   1   13.84    1.27
  -7  -3   1    4.60    0.76
  -6  -3   1    1.65    0.36
  -5  -3   1   17.23    1.14
  -4  -3   1   25.87    1.56
  -3  -3   1    3.50    0.34
  -2  -3   1  231.99   10.87
  -1  -3   1  336.20   27.07
   0  -3   1  291.62   16.47
   1  -3   1   65.46    3.13
   2  -3   1   19.74    1.00
   3  -3   1  283.47   13.53
   4  -3   1    0.02    0.25
   5  -3   1    4.26    0.43
   6  -3   1    3.40    0.45
   7  -3   1    3.02    0.52
   8  -3   1   52.45    3.50
   9  -3   1   76.61    4.62
  10  -3   1   -0.45    0.46
  11  -3   1   74.96    4.62
  12  -3   1    8.34    0.91
  13  -3   1    0.23    0.60
  14  -3   1   13.16    1.18
  15  -3   1    8.62    1.00
  -7  -2   1    1.09    0.50
  -6  -2   1    0.70    0.31
  -5  -2   1    3.62    0.42
  -4  -2   1   64.24    3.78
  -3  -2   1    5.20    0.42
  -2  -2   1    9.65    0.55
  -1  -2   1   17.47    1.16
   0  -2   1   24.85    2.03
   1  -2   1  397.62   19.20
   2  -2   1   24.60    1.23
   3  -2   1   65.13    3.90
   4  -2   1    9.37    0.61
   5  -2   1  228.85   10.90
   6  -2   1   11.45    0.90
   7  -2   1  131.81    8.21
   8  -2   1  179.59   10.83
   9  -2   1   17.45    1.44
  10  -2   1   13.03    1.17
  11  -2   1   71.51    4.49
  12  -2   1   13.73    1.22
  13  -2   1    4.14    0.77
  14  -2   1   -0.24    0.59
  15  -2   1    1.33    0.65
  -7  -1   1    5.59    0.87
  -6  -1   1    0.28    0.29
  -5  -1   1   11.36    0.83
  -4  -1   1   12.37    0.69
  -3  -1   1    0.07    0.19
  -2  -1   1   66.08    2.75
  -1  -1   1  401.42   19.36
   0  -1   1  360.46   21.08
   1  -1   1  354.05   14.83
   2  -1   1  407.10   16.77
   3  -1   1   18.74    1.00
   4  -1   1  321.35   19.15
   5  -1   1   35.19    2.27
   6  -1   1   42.42    2.72
   7  -1   1   -0.04    0.37
   8  -1   1   12.83    0.77
   9  -1   1    0.88    0.47
  10  -1   1   36.94    2.71
  11  -1   1    8.40    0.90
  12  -1   1   24.95    1.78
  13  -1   1   29.27    2.03
  14  -1   1    0.68    0.60
  -7   0   1   12.99    1.25
  -6   0   1   19.79    1.09
  -5   0   1   71.86    3.60
  -4   0   1   12.73    0.73
  -3   0   1  280.69   13.52
  -2   0   1   24.02    1.22
  -1   0   1  367.30   14.83
   0   0   1    0.03    0.15
   1   0   1  356.29   14.90
   2   0   1   24.11    1.22
   3   0   1  284.04   13.45
   4   0   1   13.02    0.74
   5   0   1   77.77    3.69
   6   0   1   20.28    1.10
   7   0   1   11.97    0.72
   8   0   1   23.28    1.25
   9   0   1   23.79    1.29
  10   0   1   19.68    0.94
  11   0   1   -0.57    0.48
  12   0   1   -0.12    0.54
  13   0   1    3.48    0.71
  14   0   1    3.71    0.74
  -9   1   1    0.82    0.46
  -8   1   1   14.85    1.32
  -7   1   1   -0.60    0.33
  -6   1   1   41.86    2.13
  -5   1   1   35.37    1.82
  -4   1   1  324.40   15.64
  -3   1   1   18.57    0.99
  -2   1   1  405.38   19.20
  -1   1   1  362.02   21.08
   0   1   1  354.74   20.96
   1   1   1  403.88   23.50
   2   1   1   64.19    3.13
   3   1   1    0.36    0.19
   4   1   1   11.38    0.89
   5   1   1   12.93    0.71
   6   1   1    0.37    0.22
   7   1   1    6.58    0.51
   8   1   1    4.81    0.44
   9   1   1   31.33    1.70
  10   1   1    0.87    0.30
  11   1   1    0.46    0.54
  12   1   1    0.73    0.57
  13   1   1   13.31    1.69
 -10   2   1   12.64    1.32
  -9   2   1   18.34    1.71
  -8   2   1  176.33   14.75
  -7   2   1  139.08   11.12
  -6   2   1   11.55    0.70
  -5   2   1  220.99   10.79
  -4   2   1   10.03    0.59
  -3   2   1   64.65    3.15
  -2   2   1   24.45    1.23
  -1   2   1  416.33   19.37
   0   2   1   25.50    2.11
   1   2   1   20.18    1.19
   2   2   1    9.73    0.56
   3   2   1    5.58    0.48
   4   2   1   65.78    3.81
   5   2   1    2.78    0.59
   6   2   1    0.73    0.26
   7   2   1    1.09    0.29
   8   2   1   36.43    1.93
   9   2   1    4.11    0.66
  10   2   1    0.86    0.33
  11   2   1    0.18    0.56
  12   2   1    0.81    0.46
  13   2   1    2.87    0.72
 -11   3   1   81.31    6.41
 -10   3   1   -0.31    0.36
  -9   3   1   81.21    6.56
  -8   3   1   57.39    4.78
  -7   3   1    2.89    0.49
  -6   3   1    3.87    0.35
  -5   3   1    4.58    0.40
  -4   3   1   -0.12    0.22
  -3   3   1  271.96   13.46
  -2   3   1   19.61    0.85
  -1   3   1   65.96    2.75
   0   3   1  296.48   16.55
   1   3   1  330.87   15.63
   2   3   1  232.04   13.20
   3   3   1    3.55    0.40
   4   3   1   25.19    1.60
   5   3   1   18.34    1.17
   6   3   1    1.53    0.31
   7   3   1    4.58    0.55
   8   3   1   11.39    0.78
   9   3   1    1.97    0.45
  10   3   1    6.88    0.65
  11   3   1    0.98    0.48
  12   3   1    0.86    0.61
 -11   4   1   20.66    1.86
 -10   4   1    5.77    0.78
  -9   4   1   18.47    1.78
  -8   4   1    1.92    0.45
  -7   4   1   27.40    2.23
  -6   4   1   60.57    3.11
  -5   4   1   12.36    0.74
  -4   4   1   13.09    0.77
  -3   4   1  328.50   13.52
  -2   4   1    9.92    0.50
  -1   4   1   -0.15    0.15
   0   4   1   13.55    0.71
   1   4   1   36.98    1.80
   2   4   1   11.79    0.66
   3   4   1    2.97    0.30
   4   4   1    1.98    0.33
   5   4   1   -0.23    0.27
   6   4   1    0.14    0.31
   7   4   1   91.35    4.14
   8   4   1    2.51    0.45
   9   4   1   12.24    0.71
  10   4   1    1.02    0.59
  11   4   1    0.95    0.61
  12   4   1    3.19    0.69
 -10   5   1    0.14    0.39
  -9   5   1    0.04    0.38
  -8   5   1   17.71    1.60
  -7   5   1    3.89    0.63
  -6   5   1    9.72    0.84
  -5   5   1   72.65    3.70
  -4   5   1   36.42    1.58
  -3   5   1  228.10    9.42
  -2   5   1    5.56    0.33
  -1   5   1   12.20    0.60
   0   5   1   78.09    3.59
   1   5   1   44.45    2.08
   2   5   1  135.52    6.46
   3   5   1   59.48    2.78
   4   5   1   20.62    1.06
   5   5   1   -0.13    0.26
   6   5   1   -0.20    0.30
   7   5   1    9.26    0.66
   8   5   1    2.50    0.36
   9   5   1    0.90    0.42
  10   5   1    0.65    0.57
  11   5   1    0.21    0.61
 -13   6   1   -0.07    0.46
 -12   6   1    0.65    0.48
 -11   6   1   -0.71    0.41
 -10   6   1    0.32    0.47
  -9   6   1    1.91    0.50
  -5   6   1   40.69    2.19
  -4   6   1   12.31    0.71
  -3   6   1    3.48    0.32
  -2   6   1   66.69    2.69
  -1   6   1   11.96    0.58
   0   6   1   22.19    1.07
   1   6   1    0.06    0.41
   2   6   1  179.06   10.48
   3   6   1   72.92    4.71
   4   6   1    7.45    0.46
   5   6   1   11.39    0.67
   6   6   1   -0.26    0.25
   7   6   1    2.22    0.44
   8   6   1    0.63    0.40
   9   6   1    3.98    0.69
  10   6   1    2.76    0.91
 -13   7   1    2.43    0.61
 -12   7   1    8.01    1.05
 -11   7   1   96.55    7.11
 -10   7   1    3.79    0.73
  -9   7   1    0.82    0.49
  -8   7   1    8.30    0.93
  -7   7   1   12.79    1.29
  -6   7   1    0.55    0.29
  -5   7   1  135.26    6.67
  -4   7   1    2.84    0.29
  -3   7   1   24.62    1.13
  -2   7   1    4.15    0.31
  -1   7   1    0.74    0.20
   0   7   1   12.41    0.57
   1   7   1   12.69    0.99
   2   7   1   18.41    1.79
   3   7   1    0.19    0.36
   4   7   1   20.17    1.42
   5   7   1    7.77    0.79
   6   7   1    0.57    0.37
   7   7   1   -0.04    0.38
   8   7   1    0.97    0.43
   9   7   1    7.89    1.22
 -14   8   1   -0.14    0.55
 -13   8   1    2.74    0.68
 -12   8   1    2.93    0.70
 -11   8   1   11.51    1.33
 -10   8   1   37.07    3.33
  -9   8   1    5.55    0.79
  -8   8   1   19.91    2.19
  -7   8   1   13.58    0.97
  -6   8   1  182.94   10.78
  -5   8   1   57.14    2.81
  -4   8   1    1.94    0.28
  -3   8   1   17.16    0.83
  -2   8   1    0.88    0.22
  -1   8   1    7.80    0.51
   0   8   1   21.87    1.21
   1   8   1    0.27    0.37
   2   8   1   13.82    0.84
   3   8   1   77.70    3.76
   4   8   1    0.75    0.36
   5   8   1    1.13    0.39
   6   8   1    7.99    0.66
   7   8   1   -0.11    0.38
   8   8   1   15.10    1.89
 -14   9   1    0.88    0.69
 -13   9   1   11.25    1.35
 -12   9   1    0.68    0.64
 -11   9   1    5.12    0.85
 -10   9   1   31.63    2.95
  -9   9   1   19.11    2.21
  -8   9   1    0.91    0.54
  -7   9   1   18.48    1.93
  -6   9   1   76.49    4.54
  -5   9   1   18.41    1.08
  -4   9   1   -0.02    0.23
  -3   9   1    1.72    0.29
  -2   9   1    0.77    0.26
  -1   9   1    4.83    0.33
   0   9   1   20.34    1.43
   1   9   1   41.73    2.08
   2   9   1   77.82    3.70
   3   9   1    8.83    0.66
   4   9   1    2.33    0.41
   5   9   1    6.90    0.62
   6   9   1   14.37    1.16
   7   9   1    4.52    0.67
 -14  10   1    1.04    0.72
 -13  10   1    9.93    1.11
 -12  10   1   -0.05    0.65
 -11  10   1    0.96    0.63
 -10  10   1   17.27    1.98
  -9  10   1   40.60    3.73
  -8  10   1   12.54    1.05
  -7  10   1   -0.05    0.34
  -6  10   1    6.11    0.62
  -5  10   1   -0.01    0.29
  -4  10   1    0.09    0.28
  -3  10   1    4.74    0.43
  -2  10   1   35.29    1.75
  -1  10   1   28.21    1.85
   0  10   1   16.58    1.29
   1  10   1    9.49    0.68
   2  10   1   14.30    0.90
   3  10   1    0.66    0.36
   4  10   1    3.07    0.59
   5  10   1    1.40    0.53
   6  10   1   -0.87    0.43
 -14  11   1    2.16    0.78
 -13  11   1   -0.19    0.65
 -12  11   1   -0.14    0.65
 -11  11   1   -0.38    0.61
 -10  11   1    7.65    1.10
  -9  11   1   76.60    6.26
  -8  11   1   78.47    4.53
  -7  11   1   19.09    1.49
  -6  11   1   10.88    0.90
  -5  11   1   -0.12    0.33
  -4  11   1   83.49    4.41
  -3  11   1    9.36    0.68
  -2  11   1    3.43    0.56
  -1  11   1    0.92    0.45
   0  11   1    0.47    0.40
   1  11   1   25.80    1.43
   2  11   1    4.57    0.52
   3  11   1   13.05    1.10
   4  11   1   10.48    1.01
   5  11   1   -0.03    0.48
 -14  12   1    0.94    0.76
 -13  12   1    0.09    0.70
 -12  12   1    0.73    0.68
 -11  12   1   23.45    2.35
 -10  12   1   15.36    1.64
  -9  12   1    7.49    0.75
  -8  12   1    0.01    0.38
  -7  12   1    8.48    0.77
  -6  12   1   -0.09    0.39
  -5  12   1    7.61    0.77
  -4  12   1    1.72    0.48
  -3  12   1    1.95    0.47
  -2  12   1    0.24    0.44
  -1  12   1    0.71    0.41
   0  12   1    1.10    0.37
   1  12   1   26.28    1.84
   2  12   1   -0.28    0.39
   3  12   1    8.46    0.87
   4  12   1   12.11    1.10
 -14  13   1   15.40    1.71
 -13  13   1    3.28    0.83
 -12  13   1   30.54    2.72
 -11  13   1    3.86    0.86
 -10  13   1    1.28    0.66
  -9  13   1    2.28    0.51
  -8  13   1    2.21    0.49
  -7  13   1    0.87    0.40
  -6  13   1    2.69    0.51
  -5  13   1    1.23    0.46
  -4  13   1   10.56    0.93
  -3  13   1    7.10    0.76
  -2  13   1    0.08    0.45
  -1  13   1   -0.37    0.44
   0  13   1    3.44    0.58
   1  13   1    0.92    0.51
   2  13   1    1.44    0.50
 -14  14   1    4.54    0.99
 -13  14   1    0.48    0.72
 -12  14   1   -0.68    0.66
 -11  14   1   12.26    1.46
 -10  14   1    5.46    0.66
  -9  14   1    8.05    0.75
  -8  14   1    7.41    0.78
  -7  14   1    0.05    0.42
  -6  14   1    0.02    0.44
  -5  14   1   -0.09    0.43
  -4  14   1    1.04    0.49
  -3  14   1    0.80    0.48
  -2  14   1    0.96    0.49
  -1  14   1   15.35    1.27
   0  14   1    4.84    0.64
 -13  15   1    1.71    0.81
 -12  15   1    8.75    1.23
 -11  15   1   10.19    1.32
 -10  15   1    1.05    0.72
  -9  15   1   12.85    1.15
  -8  15   1    0.58    0.49
  -7  15   1   -0.09    0.45
  -6  15   1    3.18    0.57
  -5  15   1   -0.35    0.45
  -4  15   1    0.31    0.48
  -3  15   1    1.53    0.52
  -2  15   1    2.43    0.85
 -12  16   1   10.70    1.56
 -11  16   1   -0.03    0.75
 -10  16   1    0.96    0.77
  -9  16   1    3.07    0.91
  -8  16   1   14.98    1.77
  -7  16   1    5.99    1.10
  -6  16   1    1.34    0.78
  -5  16   1    1.25    0.74
  -4  16   1    1.14    0.75
  10 -16   2    2.68    1.06
  11 -16   2    5.78    0.92
   8 -15   2    1.28    0.84
   9 -15   2   10.60    0.96
  10 -15   2    3.49    0.70
  11 -15   2    1.00    0.62
  12 -15   2    4.73    0.84
  13 -15   2   -0.38    0.64
   6 -14   2    6.27    1.15
   7 -14   2   20.88    2.03
   8 -14   2    1.77    0.56
   9 -14   2    0.65    0.56
  10 -14   2    0.64    0.60
  11 -14   2    0.26    0.61
  12 -14   2    5.49    0.83
  13 -14   2    6.97    0.90
  14 -14   2    1.31    0.68
   5 -13   2    3.12    0.79
   6 -13   2    0.14    0.68
   7 -13   2    3.26    0.57
   8 -13   2    2.75    0.58
   9 -13   2    6.42    0.79
  10 -13   2    3.08    0.67
  11 -13   2    1.78    0.66
  12 -13   2    0.92    0.63
  13 -13   2   -0.25    0.60
  14 -13   2    2.94    0.76
  15 -13   2    1.92    0.71
   3 -12   2    0.52    0.47
   5 -12   2    0.43    0.63
   6 -12   2    1.11    0.47
   7 -12   2   12.20    0.95
   8 -12   2   31.56    2.07
   9 -12   2   12.96    1.16
  10 -12   2    1.69    0.63
  11 -12   2    3.52    0.72
  12 -12   2    0.18    0.60
  13 -12   2    1.88    0.69
  14 -12   2   14.27    1.38
  15 -12   2    0.29    0.64
   2 -11   2   21.37    1.61
   3 -11   2   49.64    3.79
   4 -11   2   19.59    1.80
   5 -11   2    1.17    0.68
   6 -11   2    2.39    0.52
   7 -11   2   13.36    1.10
   8 -11   2   33.62    2.10
   9 -11   2    5.69    0.79
  10 -11   2    5.51    0.78
  11 -11   2    2.82    0.68
  12 -11   2    4.45    0.77
  13 -11   2    3.73    0.78
  14 -11   2   13.54    1.22
  15 -11   2    2.93    0.75
  16 -11   2    0.24    0.66
   1 -10   2   12.73    1.08
   2 -10   2    0.67    0.47
   3 -10   2   12.76    1.19
   4 -10   2    0.56    0.35
   5 -10   2    3.49    0.81
   6 -10   2    0.76    0.45
   7 -10   2    5.01    0.64
   8 -10   2    2.85    0.59
   9 -10   2    4.26    0.72
  10 -10   2    4.61    0.72
  11 -10   2   -0.37    0.54
  12 -10   2    0.96    0.61
  13 -10   2    0.50    0.60
  14 -10   2   -0.28    0.60
  15 -10   2    1.85    0.71
  16 -10   2    2.18    0.73
   0  -9   2   11.32    0.70
   1  -9   2    6.08    0.71
   2  -9   2   22.83    1.88
   3  -9   2   75.46    4.10
   4  -9   2   18.48    1.17
   5  -9   2    1.54    0.44
   6  -9   2    0.69    0.42
   7  -9   2    3.65    0.60
   8  -9   2   13.16    1.16
   9  -9   2    9.77    0.99
  10  -9   2    8.63    0.97
  11  -9   2   14.64    1.31
  12  -9   2    0.11    0.58
  13  -9   2    1.12    0.62
  14  -9   2    4.33    0.80
  15  -9   2    0.15    0.64
  16  -9   2    0.67    0.66
  -1  -8   2   16.47    0.92
   0  -8   2    1.88    0.39
   1  -8   2    1.48    0.42
   2  -8   2   55.74    4.60
   3  -8   2    2.78    0.38
   4  -8   2   21.41    1.97
   5  -8   2   54.29    3.11
   6  -8   2    4.24    0.57
   7  -8   2   -0.28    0.42
   8  -8   2    1.72    0.53
   9  -8   2    4.93    0.72
  10  -8   2    1.08    0.55
  11  -8   2   38.94    2.85
  12  -8   2   15.02    1.48
  13  -8   2    2.39    0.67
  14  -8   2    5.75    0.83
  15  -8   2    2.30    0.70
  16  -8   2    3.37    0.77
  -4  -7   2   15.83    0.90
  -3  -7   2    6.16    0.41
  -2  -7   2    4.96    0.38
  -1  -7   2    0.09    0.20
   0  -7   2   20.78    1.63
   1  -7   2   43.47    3.25
   2  -7   2   45.83    2.62
   3  -7   2   49.03    2.78
   4  -7   2    4.90    0.73
   5  -7   2    0.12    0.38
   6  -7   2    2.61    0.50
   7  -7   2   16.10    1.27
   8  -7   2    1.03    0.49
   9  -7   2   17.93    1.44
  10  -7   2    7.37    0.89
  11  -7   2   15.46    1.44
  12  -7   2   -0.24    0.55
  13  -7   2   -0.03    0.56
  14  -7   2   15.20    1.79
  15  -7   2    0.20    0.59
  16  -7   2    7.62    0.98
  -5  -6   2    2.27    0.50
  -4  -6   2    0.40    0.37
  -3  -6   2    0.68    0.33
  -2  -6   2    4.94    0.53
  -1  -6   2    3.28    0.48
   0  -6   2    0.18    0.35
   1  -6   2  138.15   10.44
   2  -6   2   18.21    1.18
   3  -6   2    0.17    0.31
   4  -6   2  115.23    6.54
   5  -6   2   48.10    2.67
   6  -6   2   -0.32    0.39
   7  -6   2   33.77    2.29
   8  -6   2   46.17    3.19
   9  -6   2   62.51    4.23
  10  -6   2    0.37    0.50
  11  -6   2    0.39    0.54
  12  -6   2    1.29    0.59
  13  -6   2    2.49    0.67
  14  -6   2    0.95    0.62
  15  -6   2    8.09    0.97
  16  -6   2    3.36    0.73
  -6  -5   2    1.35    0.50
  -5  -5   2    3.82    0.62
  -4  -5   2    2.04    0.44
  -3  -5   2   56.13    4.47
  -2  -5   2   -0.07    0.29
   0  -5   2    0.97    0.39
   1  -5   2   14.88    0.80
   2  -5   2   21.78    1.14
   3  -5   2    1.67    0.30
   4  -5   2  221.82   10.54
   5  -5   2    0.48    0.40
   6  -5   2  127.92    7.50
   7  -5   2   40.21    2.63
   8  -5   2    2.01    0.50
   9  -5   2   14.95    1.29
  10  -5   2    4.59    0.68
  11  -5   2    1.55    0.59
  12  -5   2    8.85    0.99
  13  -5   2    1.55    0.63
  14  -5   2   -0.15    0.59
  15  -5   2    3.39    0.71
  16  -5   2    5.02    0.80
  -7  -4   2   19.51    1.29
  -6  -4   2    0.77    0.32
  -5  -4   2   16.37    1.12
  -4  -4   2   23.39    1.41
  -3  -4   2    4.68    0.39
  -2  -4   2  119.03    9.30
   0  -4   2    6.94    0.82
   1  -4   2    5.42    0.37
   2  -4   2   20.78    1.10
   3  -4   2   26.71    1.35
   4  -4   2    7.29    0.53
   5  -4   2   14.27    0.90
   6  -4   2   17.62    1.29
   7  -4   2   45.10    2.95
   8  -4   2   20.81    1.56
   9  -4   2    1.82    0.53
  10  -4   2    0.39    0.49
  11  -4   2   11.20    1.17
  12  -4   2   27.86    2.01
  13  -4   2    4.79    0.78
  14  -4   2    0.58    0.60
  15  -4   2   -0.30    0.56
  -7  -3   2    8.23    1.06
  -6  -3   2   67.37    4.14
  -5  -3   2    1.91    0.34
  -4  -3   2   46.72    2.85
  -3  -3   2   -0.03    0.20
  -2  -3   2    1.73    0.20
  -1  -3   2   26.43    1.61
   0  -3   2   14.86    1.00
   1  -3   2   86.29    4.18
   2  -3   2   11.05    0.66
   3  -3   2   15.32    0.86
   4  -3   2    5.19    0.45
   5  -3   2   21.18    1.44
   6  -3   2   -0.37    0.37
   7  -3   2    5.45    0.61
   8  -3   2   47.84    3.27
   9  -3   2    0.87    0.50
  10  -3   2    4.44    0.71
  11  -3   2   28.94    2.04
  12  -3   2   10.44    1.06
  13  -3   2    3.52    0.72
  14  -3   2    0.65    0.59
  15  -3   2    4.91    0.81
  -7  -2   2   16.55    1.82
  -6  -2   2   50.53    3.10
  -5  -2   2   42.15    2.54
  -4  -2   2   17.74    1.17
  -3  -2   2   21.25    0.98
  -2  -2   2   21.66    0.94
  -1  -2   2   10.60    0.60
   0  -2   2    2.33    0.35
   1  -2   2    4.38    0.30
   2  -2   2    2.22    0.24
   3  -2   2   81.59    3.56
   4  -2   2   19.86    1.13
   5  -2   2    1.91    0.38
   6  -2   2  112.14    6.66
   7  -2   2    0.48    0.38
   8  -2   2    4.72    0.61
   9  -2   2    4.53    0.66
  10  -2   2    3.09    0.59
  11  -2   2    4.28    0.70
  12  -2   2    2.54    0.66
  13  -2   2    2.74    0.64
  14  -2   2    6.01    0.83
  15  -2   2    0.16    0.60
  -7  -1   2    1.02    0.33
  -6  -1   2   33.86    1.80
  -5  -1   2  116.17    7.44
  -4  -1   2   14.85    0.82
  -3  -1   2    5.49    0.36
  -2  -1   2   85.92    3.55
  -1  -1   2    4.32    0.34
   0  -1   2  134.33    8.21
   1  -1   2  137.34    6.70
   2  -1   2    4.08    0.30
   3  -1   2   10.55    0.54
   4  -1   2   26.47    1.17
   5  -1   2  216.50   12.50
   6  -1   2   41.16    2.57
   7  -1   2    3.73    0.51
   8  -1   2   -0.20    0.42
   9  -1   2   14.67    1.19
  10  -1   2    4.63    0.70
  11  -1   2    4.72    0.76
  12  -1   2    4.47    0.75
  13  -1   2    1.39    0.63
  14  -1   2    5.92    0.85
  -9   0   2   10.03    1.23
  -8   0   2    1.36    0.58
  -7   0   2   17.00    1.64
  -6   0   2   -0.03    0.28
  -5   0   2    0.25    0.24
  -4   0   2    7.60    0.51
  -3   0   2   15.46    0.84
  -2   0   2    2.07    0.23
  -1   0   2  141.20    8.21
   0   0   2   61.52    3.66
   1   0   2  140.14    8.20
   2   0   2    2.70    0.23
   3   0   2   15.68    0.74
   4   0   2    7.36    0.41
   5   0   2    0.51    0.15
   6   0   2    0.48    0.10
   7   0   2   16.95    1.30
   8   0   2    1.29    0.47
   9   0   2    8.85    0.93
  10   0   2    5.02    0.71
  11   0   2    2.54    0.60
  12   0   2    0.76    0.55
  13   0   2    0.26    0.56
  14   0   2    2.22    0.67
 -10   1   2    5.25    0.79
  -9   1   2   12.99    1.43
  -8   1   2    0.54    0.42
  -7   1   2    2.48    0.65
  -6   1   2   40.92    2.15
  -5   1   2  214.85   10.53
  -4   1   2   26.05    1.34
  -3   1   2   10.96    0.66
  -2   1   2    4.48    0.31
  -1   1   2  142.51    8.20
   0   1   2  140.58    8.20
   1   1   2    4.63    0.38
   2   1   2   85.74    3.63
   3   1   2    5.62    0.40
   4   1   2   15.51    0.97
   5   1   2  124.28    6.03
   6   1   2   35.61    1.88
   7   1   2    1.13    0.18
   8   1   2    5.40    0.34
   9   1   2   11.12    0.57
  10   1   2   -0.31    0.50
  11   1   2    4.49    0.69
  12   1   2    2.32    0.64
  13   1   2    3.92    0.73
 -12   2   2    2.16    0.68
 -11   2   2    5.94    0.82
 -10   2   2    3.76    0.64
  -9   2   2    4.63    0.70
  -8   2   2    4.56    0.67
  -6   2   2  107.40    6.52
  -5   2   2    1.52    0.29
  -4   2   2   21.05    1.12
  -3   2   2   88.32    4.20
  -2   2   2    2.53    0.30
  -1   2   2    4.44    0.34
   0   2   2    2.38    0.24
   1   2   2    9.38    1.06
   2   2   2   20.89    1.11
   3   2   2   22.26    1.15
   4   2   2   17.92    0.99
   5   2   2   42.23    2.16
   6   2   2   52.18    3.27
   7   2   2   18.75    1.10
   8   2   2    1.24    0.24
   9   2   2   16.17    0.99
  10   2   2    0.96    0.52
  11   2   2    4.80    0.72
  12   2   2   18.66    1.44
  13   2   2   -0.29    0.89
 -13   3   2    3.78    0.75
 -12   3   2   12.73    1.36
 -11   3   2   33.51    2.77
 -10   3   2    4.78    0.75
  -9   3   2    0.08    0.40
  -8   3   2   52.54    4.34
  -6   3   2   -0.13    0.32
  -5   3   2   21.07    1.16
  -4   3   2    5.14    0.43
  -3   3   2   16.34    0.89
  -2   3   2   10.88    0.66
  -1   3   2   87.01    3.53
   0   3   2   15.68    1.46
   1   3   2   25.50    2.28
   2   3   2    0.85    0.28
   3   3   2    0.22    0.25
   4   3   2   46.49    2.28
   5   3   2    2.02    0.31
   6   3   2   65.69    3.37
   7   3   2   10.09    0.68
   8   3   2   44.01    2.21
   9   3   2    0.75    0.32
  10   3   2    0.55    0.53
  11   3   2   14.13    1.02
  12   3   2    0.49    0.60
 -13   4   2    6.19    0.89
 -12   4   2   31.83    2.75
 -11   4   2   11.95    1.40
 -10   4   2    0.24    0.49
  -9   4   2    1.44    0.55
  -8   4   2   22.85    2.01
  -7   4   2   38.14    3.98
  -6   4   2   17.32    1.71
  -5   4   2   14.53    0.86
  -4   4   2    6.97    0.51
  -3   4   2   25.82    1.37
  -2   4   2   20.77    1.12
  -1   4   2    5.86    0.37
   0   4   2    7.07    0.57
   1   4   2  227.46   12.88
   2   4   2  112.40    6.50
   3   4   2    4.98    0.40
   4   4   2   22.36    1.16
   5   4   2   16.74    1.19
   6   4   2    0.30    0.29
   7   4   2   18.63    1.03
   8   4   2   17.26    0.92
   9   4   2    2.77    0.40
  10   4   2    0.92    0.61
  11   4   2    4.06    0.73
 -13   5   2    1.95    0.61
 -12   5   2    8.22    1.12
 -11   5   2    1.80    0.60
 -10   5   2    4.26    0.73
  -9   5   2   15.68    1.65
  -8   5   2    2.03    0.55
  -7   5   2   40.58    3.74
  -6   5   2  128.73   10.47
  -5   5   2    0.14    0.33
  -4   5   2  213.65   12.51
  -3   5   2    1.32    0.36
  -2   5   2   21.53    1.13
  -1   5   2   15.98    0.96
   0   5   2    0.75    0.22
   1   5   2   44.22    2.60
   2   5   2   -0.14    0.19
   3   5   2   51.27    2.17
   4   5   2    1.92    0.27
   5   5   2    3.81    0.36
   6   5   2    0.84    0.29
   7   5   2   -0.10    0.29
   8   5   2    2.62    0.38
   9   5   2    6.15    0.82
  10   5   2    1.66    0.62
  11   5   2    0.55    0.61
 -14   6   2    1.16    0.62
 -13   6   2    2.40    0.66
 -12   6   2    0.90    0.59
 -11   6   2    1.90    0.60
 -10   6   2    1.54    0.60
  -9   6   2   69.27    5.84
  -8   6   2   55.26    4.66
  -7   6   2   37.71    3.29
  -6   6   2   -0.01    0.45
  -5   6   2   39.69    2.54
  -4   6   2  107.63    6.62
  -3   6   2    0.21    0.16
  -2   6   2   18.10    0.85
  -1   6   2  131.13    6.07
   0   6   2   -0.17    0.19
   1   6   2    2.78    0.23
   2   6   2    3.98    0.31
   3   6   2   -0.25    0.19
   4   6   2    0.24    0.23
   5   6   2    2.85    0.32
   6   6   2    1.42    0.31
   7   6   2   -0.29    0.35
   8   6   2    4.94    0.57
   9   6   2    2.48    0.62
  10   6   2    2.94    0.70
 -14   7   2   20.87    1.87
 -13   7   2    0.12    0.58
 -12   7   2    0.56    0.62
 -11   7   2   19.78    1.82
 -10   7   2    9.71    1.21
  -9   7   2   20.65    1.94
  -8   7   2    1.14    0.58
  -7   7   2   16.98    1.75
  -6   7   2    3.11    0.64
  -5   7   2    0.04    0.48
  -4   7   2    4.64    0.38
  -3   7   2   46.83    2.35
  -2   7   2   41.51    2.07
  -1   7   2   36.98    1.79
   0   7   2   17.86    0.93
   1   7   2    0.25    0.16
   2   7   2    4.28    0.26
   3   7   2    4.99    0.29
   4   7   2   13.91    0.70
   5   7   2   10.91    0.74
   6   7   2    2.20    0.43
   7   7   2   19.11    1.14
   8   7   2    3.70    0.55
   9   7   2    2.75    0.62
 -14   8   2    5.99    0.96
 -13   8   2    3.34    0.80
 -12   8   2   18.56    1.85
 -11   8   2   43.92    3.83
 -10   8   2    1.10    0.66
  -9   8   2    5.15    0.88
  -8   8   2    1.26    0.56
  -7   8   2   -0.06    0.50
  -6   8   2    3.06    0.65
  -5   8   2   50.34    3.19
  -4   8   2   20.93    1.18
  -3   8   2    2.53    0.30
  -2   8   2   53.71    2.54
  -1   8   2    1.15    0.25
   0   8   2    2.22    0.34
   1   8   2   14.99    0.67
   2   8   2    2.37    0.39
   3   8   2   31.29    1.64
   4   8   2   30.54    1.63
   5   8   2    1.71    0.40
   6   8   2    0.47    0.39
   7   8   2    0.05    0.38
   8   8   2    5.76    1.02
 -14   9   2    9.78    1.16
 -13   9   2    2.70    0.81
 -12   9   2   -0.13    0.65
 -11   9   2   15.96    1.77
 -10   9   2   10.13    1.29
  -9   9   2   10.86    1.26
  -8   9   2   14.18    1.57
  -7   9   2    4.70    0.75
  -6   9   2    0.05    0.29
  -5   9   2    1.52    0.33
  -4   9   2   16.30    1.13
  -3   9   2   68.55    3.38
  -2   9   2   20.41    1.06
  -1   9   2    6.03    0.56
   0   9   2   10.91    0.53
   1   9   2    4.34    0.55
   2   9   2    5.33    0.51
   3   9   2   13.85    0.86
   4   9   2    5.92    0.56
   5   9   2   -0.34    0.33
   6   9   2    8.97    0.72
   7   9   2    8.33    0.87
 -15  10   2    3.04    0.93
 -14  10   2    0.53    0.75
 -13  10   2   -0.23    0.68
 -12  10   2    3.38    0.82
 -11  10   2   -0.23    0.56
 -10  10   2    5.09    0.88
  -9  10   2    5.60    0.87
  -8  10   2    3.32    0.73
  -7  10   2    3.23    0.81
  -6  10   2    0.82    0.34
  -5  10   2    4.15    0.48
  -4  10   2   -0.10    0.26
  -3  10   2    9.79    0.62
  -2  10   2    1.29    0.31
  -1  10   2   10.54    0.66
   0  10   2    4.08    0.56
   1  10   2    5.43    0.54
   2  10   2    2.44    0.42
   3  10   2    3.34    0.45
   4  10   2    0.70    0.36
   5  10   2    2.34    0.53
   6  10   2    3.46    0.61
 -15  11   2    5.71    1.07
 -14  11   2   16.04    1.74
 -13  11   2    4.30    0.95
 -12  11   2    4.85    0.90
 -11  11   2    2.79    0.75
 -10  11   2    4.92    0.93
  -9  11   2    5.90    0.90
  -8  11   2   29.61    2.78
  -7  11   2   14.38    1.06
  -6  11   2    2.43    0.43
  -5  11   2    1.36    0.35
  -4  11   2   17.68    1.33
  -3  11   2   42.38    2.75
  -2  11   2   15.96    1.17
  -1  11   2    0.01    0.36
   0  11   2    3.58    0.53
   1  11   2    4.04    0.48
   2  11   2    2.43    0.42
   3  11   2    0.82    0.39
   4  11   2   -0.61    0.40
   5  11   2    5.43    0.70
 -15  12   2   -0.01    0.79
 -14  12   2   18.60    1.97
 -13  12   2    1.29    0.81
 -12  12   2    0.96    0.71
 -11  12   2    3.95    0.91
 -10  12   2    3.15    0.79
  -9  12   2   11.20    1.37
  -8  12   2   28.22    2.71
  -7  12   2   10.56    0.87
  -6  12   2    1.17    0.47
  -5  12   2   -0.35    0.36
  -4  12   2   17.11    1.34
  -3  12   2    0.05    0.39
  -2  12   2    0.96    0.46
  -1  12   2    4.08    0.58
   0  12   2    0.10    0.40
   1  12   2    1.18    0.39
   2  12   2    5.92    0.70
   3  12   2    5.40    0.69
 -15  13   2    2.12    0.86
 -14  13   2    3.03    0.91
 -13  13   2    0.16    0.66
 -12  13   2    1.56    0.75
 -11  13   2    2.01    0.75
 -10  13   2    1.80    0.76
  -9  13   2    4.64    0.95
  -8  13   2    2.75    0.50
  -7  13   2    3.53    0.53
  -6  13   2   -0.20    0.39
  -5  13   2    3.22    0.54
  -4  13   2    2.34    0.49
  -3  13   2    0.55    0.43
  -2  13   2    3.98    0.62
  -1  13   2    2.45    0.55
   0  13   2   -0.34    0.44
   1  13   2    6.56    0.76
   2  13   2   -0.25    0.45
 -14  14   2    2.72    0.84
 -13  14   2    6.22    1.10
 -12  14   2    4.88    0.98
 -11  14   2    1.49    0.73
 -10  14   2   -0.35    0.70
  -9  14   2   -0.68    0.61
  -8  14   2    0.53    0.70
  -7  14   2   16.09    1.76
  -6  14   2    4.96    1.03
  -5  14   2    3.70    0.96
  -4  14   2   -0.09    0.65
  -3  14   2    9.61    1.46
  -2  14   2   15.97    1.86
  -1  14   2    2.50    0.87
   0  14   2    1.10    0.74
 -13  15   2    0.88    0.69
 -12  15   2    3.57    0.88
 -11  15   2    0.73    0.67
 -10  15   2    2.25    0.87
  -9  15   2    5.82    1.15
  -8  15   2    0.13    0.71
  -7  15   2    2.46    0.85
  -6  15   2    0.28    0.74
  -5  15   2    1.86    0.79
  -4  15   2    3.02    0.90
  -3  15   2    0.73    0.72
  -2  15   2    1.19    0.74
 -11  16   2    4.02    0.92
 -10  16   2    3.68    0.90
  -9  16   2    7.51    1.20
  -8  16   2    4.34    0.95
  -7  16   2    2.36    0.84
  -6  16   2    2.58    0.85
  -5  16   2    1.57    0.76
   8 -15   3   -0.50    0.86
   9 -15   3    1.35    0.96
  10 -15   3    0.11    0.89
  11 -15   3    1.08    0.66
  12 -15   3    0.74    0.66
   7 -14   3   12.21    1.49
   8 -14   3   15.83    1.76
   9 -14   3    3.66    0.71
  10 -14   3    7.52    0.90
  11 -14   3    2.96    0.74
  12 -14   3   -0.14    0.66
  13 -14   3    1.47    0.75
   5 -13   3    8.43    1.17
   6 -13   3    3.24    0.92
   7 -13   3    5.97    0.76
   8 -13   3   -0.27    0.50
   9 -13   3    0.77    0.61
  10 -13   3    1.16    0.62
  11 -13   3    5.29    0.86
  12 -13   3   -0.03    0.64
  13 -13   3   -0.34    0.63
  14 -13   3   -0.12    0.62
   3 -12   3   -0.66    0.59
   4 -12   3    0.71    0.68
   5 -12   3   37.75    2.06
   6 -12   3    7.35    0.74
   7 -12   3    7.22    0.80
   8 -12   3    0.49    0.53
   9 -12   3    7.23    0.85
  10 -12   3    1.52    0.66
  11 -12   3    0.70    0.61
  12 -12   3   29.21    2.08
  13 -12   3    6.74    0.98
  14 -12   3   43.69    2.91
  15 -12   3    4.83    0.85
   2 -11   3   -0.19    0.51
   3 -11   3    0.51    0.63
   4 -11   3    7.23    1.06
   5 -11   3   38.12    2.14
   6 -11   3    7.63    0.79
   7 -11   3   31.81    2.05
   8 -11   3   48.39    3.07
   9 -11   3   59.30    3.62
  10 -11   3    0.73    0.59
  11 -11   3   19.78    1.60
  12 -11   3    8.25    0.99
  13 -11   3    0.62    0.67
  14 -11   3   -0.65    0.61
  15 -11   3   -0.69    0.62
   0 -10   3    2.91    0.54
   1 -10   3    0.08    0.50
   3 -10   3   34.43    2.74
   4 -10   3   41.34    2.34
   5 -10   3    0.39    0.41
   6 -10   3   39.99    2.47
   7 -10   3   11.09    0.94
   8 -10   3   -0.69    0.52
   9 -10   3    0.37    0.56
  10 -10   3    2.04    0.64
  11 -10   3    0.19    0.59
  12 -10   3    3.67    0.78
  13 -10   3    6.63    0.94
  14 -10   3   -0.32    0.62
  15 -10   3    2.76    0.75
  -1  -9   3    0.55    0.44
   0  -9   3   20.42    1.68
   1  -9   3   35.17    2.88
   3  -9   3    3.12    0.40
   4  -9   3   12.88    0.96
   5  -9   3   36.37    2.18
   6  -9   3   -0.35    0.43
   7  -9   3    6.19    0.75
   8  -9   3   50.10    3.20
   9  -9   3   17.45    1.37
  10  -9   3    0.39    0.57
  11  -9   3   -0.38    0.55
  12  -9   3   -0.73    0.56
  13  -9   3    1.87    0.68
  14  -9   3    4.14    0.77
  15  -9   3    8.41    0.97
  16  -9   3   -1.85    0.71
  -2  -8   3   -0.58    0.40
  -1  -8   3   56.71    2.94
   0  -8   3   31.55    2.35
   1  -8   3   25.53    2.10
   2  -8   3   16.51    1.37
   3  -8   3   15.43    1.06
   4  -8   3    3.65    0.50
   5  -8   3   18.97    1.78
   6  -8   3   10.38    0.93
   7  -8   3    0.82    0.51
   8  -8   3   24.31    1.79
   9  -8   3   27.76    1.99
  10  -8   3   32.78    2.36
  11  -8   3    0.05    0.56
  12  -8   3    0.77    0.59
  13  -8   3    5.69    0.83
  14  -8   3    1.83    0.69
  15  -8   3   50.03    3.27
  16  -8   3    1.44    0.67
  -3  -7   3    9.30    1.01
  -2  -7   3    6.96    0.57
  -1  -7   3    1.06    0.48
   0  -7   3    0.33    0.47
   1  -7   3   74.03    5.90
   2  -7   3    8.52    0.84
   3  -7   3    3.90    0.46
   4  -7   3   17.52    1.22
   5  -7   3   14.92    1.64
   6  -7   3    2.47    0.54
   7  -7   3   -0.30    0.44
   8  -7   3   19.47    1.51
   9  -7   3    2.88    0.62
  10  -7   3   27.14    2.09
  11  -7   3    6.00    0.84
  12  -7   3   26.44    1.86
  13  -7   3    1.48    0.64
  14  -7   3   10.15    1.04
  15  -7   3    0.25    0.60
  16  -7   3    0.57    0.80
  -4  -6   3   40.25    3.17
  -3  -6   3    0.29    0.39
  -2  -6   3    9.15    1.02
  -1  -6   3    3.09    0.57
   0  -6   3   34.88    2.81
   1  -6   3   33.46    2.02
   2  -6   3    0.91    0.30
   3  -6   3   60.57    3.52
   4  -6   3   60.75    3.64
   5  -6   3   62.11    5.00
   6  -6   3   30.96    2.01
   7  -6   3   65.70    4.07
   8  -6   3   12.54    1.11
   9  -6   3    2.56    0.60
  10  -6   3   31.21    2.53
  11  -6   3   26.92    1.96
  12  -6   3    5.77    0.80
  13  -6   3    5.89    0.82
  14  -6   3   12.06    1.19
  15  -6   3    0.91    0.65
  -5  -5   3    0.12    0.44
  -4  -5   3   32.42    2.75
  -3  -5   3   16.61    1.62
  -2  -5   3   15.16    1.46
   0  -5   3   11.35    0.58
   1  -5   3    9.30    0.69
   2  -5   3   12.15    0.85
   3  -5   3   10.10    0.78
   4  -5   3    8.84    0.76
   5  -5   3   11.68    0.90
   6  -5   3   31.90    2.10
   7  -5   3    8.04    0.82
   8  -5   3   14.92    1.17
   9  -5   3   11.99    1.09
  10  -5   3   -0.10    0.48
  11  -5   3    6.12    0.80
  12  -5   3    6.26    0.82
  13  -5   3    0.41    0.58
  14  -5   3    2.90    0.67
  15  -5   3   -0.56    0.55
  -6  -4   3   37.19    3.39
  -5  -4   3   12.18    0.90
  -4  -4   3    3.46    0.36
  -3  -4   3   18.09    1.14
  -2  -4   3   61.29    3.53
  -1  -4   3    8.47    0.55
   0  -4   3  117.47    9.45
   1  -4   3   10.39    0.66
   2  -4   3  146.36    7.20
   3  -4   3   11.72    0.91
   4  -4   3  108.13    6.58
   5  -4   3    7.83    0.81
   6  -4   3    0.42    0.44
   7  -4   3    2.73    0.54
   8  -4   3    3.22    0.58
   9  -4   3   30.13    2.08
  10  -4   3   34.81    2.38
  11  -4   3   26.62    1.95
  12  -4   3    0.11    0.56
  13  -4   3    1.51    0.60
  14  -4   3    6.10    0.81
  15  -4   3   -0.04    0.56
  -7  -3   3   27.77    2.75
  -6  -3   3    2.54    0.53
  -5  -3   3   14.64    1.01
  -4  -3   3    3.15    0.32
  -3  -3   3   56.60    2.71
  -2  -3   3    8.02    0.67
  -1  -3   3   12.37    0.73
   0  -3   3    2.44    0.33
   1  -3   3   26.36    1.43
   2  -3   3  184.49    7.96
   3  -3   3    2.33    0.31
   4  -3   3    9.78    0.70
   5  -3   3   11.16    0.91
   6  -3   3   52.33    3.39
   7  -3   3   17.41    1.32
   8  -3   3   14.32    1.28
   9  -3   3   -0.24    0.44
  10  -3   3    7.38    0.92
  11  -3   3   43.32    2.82
  12  -3   3    5.57    0.78
  13  -3   3    0.99    0.58
  14  -3   3    2.80    0.68
  15  -3   3    1.47    0.63
  -7  -2   3    2.79    0.60
  -6  -2   3   12.78    0.99
  -5  -2   3    8.58    0.70
  -4  -2   3    0.43    0.23
  -3  -2   3   10.64    0.66
  -2  -2   3  148.88    7.02
  -1  -2   3  186.11   11.07
   0  -2   3   14.65    1.03
   1  -2   3  191.72    9.46
   2  -2   3   14.41    0.75
   3  -2   3   26.35    1.22
   4  -2   3  149.24    7.02
   5  -2   3    9.72    0.59
   6  -2   3   54.84    3.64
   7  -2   3   14.15    1.18
   8  -2   3    9.37    0.89
   9  -2   3    6.32    0.75
  10  -2   3   -0.08    0.50
  11  -2   3   55.07    3.36
  12  -2   3    2.84    0.65
  13  -2   3    3.95    0.74
  14  -2   3    0.51    0.55
  -8  -1   3   26.75    2.66
  -7  -1   3   18.20    1.97
  -6  -1   3   60.50    4.00
  -5  -1   3   30.88    2.02
  -4  -1   3    9.26    0.61
  -3  -1   3   10.80    0.58
  -2  -1   3   28.35    1.41
  -1  -1   3  198.59   11.54
   0  -1   3  114.17    6.75
   1  -1   3  112.48    6.78
   2  -1   3  196.28    8.16
   3  -1   3  188.45    7.83
   4  -1   3   12.73    0.65
   5  -1   3    8.23    0.56
   6  -1   3   59.59    2.89
   7  -1   3    2.85    0.53
   8  -1   3    0.05    0.44
   9  -1   3   46.57    3.06
  10  -1   3    0.51    0.53
  11  -1   3    0.56    0.52
  12  -1   3    1.06    0.58
  13  -1   3    0.69    0.55
  14  -1   3    1.93    0.60
 -10   0   3    0.52    0.58
  -9   0   3   14.77    1.68
  -8   0   3   21.97    2.37
  -7   0   3    0.32    0.54
  -6   0   3   29.71    1.94
  -5   0   3    8.96    0.77
  -4   0   3  109.76    5.36
  -3   0   3    3.19    0.33
  -2   0   3   14.91    0.85
  -1   0   3  114.39    6.79
   0   0   3    0.19    0.24
   1   0   3  111.92    6.73
   2   0   3   15.71    0.74
   3   0   3    2.94    0.30
   4   0   3  110.16    4.77
   5   0   3   10.46    0.67
   6   0   3   31.20    1.61
   7   0   3   -0.11    0.13
   8   0   3   22.42    1.72
   9   0   3   15.23    1.30
  10   0   3    1.00    0.56
  11   0   3   21.84    1.59
  12   0   3   25.26    1.84
  13   0   3    0.07    0.61
 -11   1   3    0.41    0.62
 -10   1   3    0.28    0.55
  -9   1   3   45.83    4.36
  -8   1   3    0.07    0.51
  -7   1   3    2.28    0.59
  -6   1   3   52.76    3.46
  -5   1   3    7.84    0.70
  -4   1   3   13.31    0.78
  -3   1   3  194.54    7.96
  -2   1   3  202.00    9.47
  -1   1   3  116.65    6.74
   0   1   3  120.18    6.78
   1   1   3  198.60   11.58
   2   1   3   29.90    1.44
   3   1   3   11.06    0.58
   4   1   3    9.50    0.59
   5   1   3   32.81    1.69
   6   1   3   68.96    3.40
   7   1   3   21.38    1.19
   8   1   3   31.89    1.40
   9   1   3   -0.23    0.48
  10   1   3    0.37    0.46
  11   1   3    7.94    0.88
  12   1   3    7.36    0.86
  13   1   3    1.69    0.63
 -13   2   3    4.55    0.89
 -12   2   3    2.43    0.69
 -11   2   3   55.35    4.96
 -10   2   3   -0.32    0.50
  -9   2   3    5.18    0.88
  -8   2   3    9.53    1.19
  -7   2   3   14.62    1.54
  -6   2   3   60.42    5.11
  -5   2   3    9.13    0.77
  -4   2   3  147.16    7.21
  -3   2   3   27.95    1.46
  -2   2   3   14.85    0.73
  -1   2   3  199.12   11.51
   0   2   3   15.66    0.99
   1   2   3  199.89   11.23
   2   2   3  153.30    7.19
   3   2   3   10.98    0.60
   4   2   3    0.88    0.24
   5   2   3    8.67    0.58
   6   2   3   16.01    0.92
   7   2   3    4.13    0.39
   8   2   3   34.82    1.80
   9   2   3   -0.47    0.46
  10   2   3    5.21    0.72
  11   2   3    1.64    0.57
  12   2   3   50.45    3.00
 -13   3   3    1.84    0.67
 -12   3   3    6.91    0.98
 -11   3   3   46.63    4.19
 -10   3   3    9.75    1.14
  -9   3   3   -0.35    0.46
  -8   3   3   16.45    1.59
  -7   3   3   17.30    1.68
  -6   3   3   60.53    4.99
  -5   3   3   12.01    1.25
  -4   3   3   10.68    0.69
  -3   3   3    2.30    0.44
  -2   3   3  186.05    9.05
  -1   3   3   26.44    1.66
   0   3   3    2.42    0.29
   1   3   3   12.88    0.87
   2   3   3    9.55    0.59
   3   3   3   56.08    2.87
   4   3   3    3.86    0.45
   5   3   3   14.58    0.88
   6   3   3    2.22    0.34
   7   3   3   28.61    1.54
   8   3   3    0.41    0.30
   9   3   3    0.77    0.53
  10   3   3    9.72    0.93
  11   3   3    0.16    0.81
  12   3   3    6.15    1.18
 -14   4   3    5.15    0.95
 -13   4   3    2.28    0.68
 -12   4   3   -0.06    0.50
 -11   4   3   32.68    2.79
 -10   4   3   37.49    3.41
  -9   4   3   31.52    3.01
  -8   4   3    4.52    0.72
  -7   4   3    3.94    0.73
  -6   4   3    0.47    0.51
  -5   4   3    8.89    1.07
  -4   4   3  116.05    9.56
  -3   4   3   13.56    0.79
  -2   4   3  144.72    7.03
  -1   4   3   11.49    0.58
   0   4   3  122.96    9.19
   2   4   3   62.60    5.11
   3   4   3   16.05    0.98
   4   4   3    3.33    0.38
   5   4   3   13.26    0.80
   6   4   3   35.61    1.91
   7   4   3    6.39    0.54
   8   4   3    1.01    0.34
   9   4   3    3.82    0.64
  10   4   3    0.50    0.54
  11   4   3    1.62    0.65
 -14   5   3    3.11    0.79
 -13   5   3    0.82    0.63
 -12   5   3    8.49    1.05
 -11   5   3    9.14    1.11
 -10   5   3    0.46    0.59
  -9   5   3   12.54    1.42
  -8   5   3   13.72    1.55
  -7   5   3    7.66    1.03
  -6   5   3   32.14    2.96
  -5   5   3   11.25    1.24
  -4   5   3    6.73    0.99
  -3   5   3    8.62    0.73
  -2   5   3   11.62    0.83
  -1   5   3    9.65    0.46
   0   5   3    9.98    0.74
   1   5   3   58.95    3.44
   2   5   3   14.65    0.85
   3   5   3   15.64    0.92
   4   5   3   34.27    1.74
   5   5   3    0.02    0.38
   6   5   3   32.70    1.73
   7   5   3   31.67    1.46
   8   5   3    7.69    0.55
   9   5   3    4.50    0.77
  10   5   3    4.29    0.74
 -13   6   3    7.50    1.03
 -12   6   3    7.11    1.05
 -11   6   3   31.88    3.03
 -10   6   3   37.86    3.34
  -9   6   3    1.46    0.64
  -8   6   3   14.94    1.65
  -7   6   3   65.85    5.91
  -6   6   3   26.92    2.81
  -5   6   3   55.30    5.01
  -4   6   3   53.98    5.10
  -3   6   3   54.02    3.35
  -2   6   3   -0.02    0.31
  -1   6   3   32.57    1.62
   0   6   3   30.30    1.55
   1   6   3    2.75    0.38
   2   6   3    9.97    0.81
   3   6   3   -0.28    0.22
   4   6   3   38.78    1.70
   5   6   3    8.30    0.54
   6   6   3    7.12    0.62
   7   6   3    1.58    0.41
   8   6   3    1.86    0.61
   9   6   3   10.25    1.01
 -14   7   3   10.22    1.33
 -13   7   3    2.57    0.79
 -12   7   3   32.06    2.95
 -11   7   3    6.17    1.03
 -10   7   3   28.01    2.70
  -9   7   3    4.07    0.82
  -8   7   3   21.29    2.11
  -7   7   3    0.05    0.52
  -6   7   3    1.98    0.61
  -5   7   3   13.44    1.56
  -4   7   3   14.23    1.69
  -3   7   3    3.46    0.46
  -2   7   3    8.49    0.53
  -1   7   3   68.97    3.25
   0   7   3    0.04    0.22
   1   7   3    0.63    0.21
   2   7   3    6.64    0.41
   3   7   3    8.84    0.55
   4   7   3   30.67    1.39
   5   7   3    6.89    0.62
   6   7   3    7.16    0.63
   7   7   3   10.60    0.80
   8   7   3   62.93    3.80
   9   7   3    0.30    0.77
 -15   8   3   70.34    5.36
 -14   8   3    1.35    0.80
 -13   8   3    7.62    1.09
 -12   8   3    0.45    0.66
 -11   8   3    0.39    0.67
 -10   8   3   37.39    3.19
  -9   8   3   30.73    2.91
  -8   8   3   23.85    2.39
  -7   8   3    0.60    0.55
  -6   8   3    8.49    1.14
  -5   8   3   14.70    1.74
  -4   8   3    3.33    0.72
  -3   8   3   15.06    0.99
  -2   8   3   13.25    0.77
  -1   8   3   20.92    1.11
   0   8   3   27.69    1.35
   1   8   3   53.52    2.17
   2   8   3   -0.24    0.22
   3   8   3   49.88    2.10
   4   8   3   -0.61    0.31
   5   8   3   -0.64    0.31
   6   8   3   14.34    0.94
   7   8   3    0.89    0.51
   8   8   3    1.21    0.57
 -15   9   3   11.10    1.40
 -14   9   3    4.79    0.98
 -13   9   3    5.27    0.94
 -12   9   3   -0.58    0.67
 -11   9   3   -0.40    0.57
 -10   9   3    1.33    0.64
  -9   9   3   16.91    1.79
  -8   9   3   44.25    4.22
  -7   9   3    4.93    0.92
  -6   9   3    0.26    0.58
  -5   9   3   29.92    2.86
  -4   9   3   13.63    0.89
  -3   9   3    2.83    0.34
  -2   9   3    3.88    0.35
  -1   9   3   30.51    1.52
   0   9   3   17.26    1.20
   1   9   3    0.18    0.26
   2   9   3   58.37    2.90
   3   9   3    6.92    0.59
   4   9   3    0.57    0.35
   5   9   3    3.46    0.47
   6   9   3    1.59    0.41
   7   9   3   -1.20    0.57
 -15  10   3    3.97    1.03
 -14  10   3    0.67    0.83
 -13  10   3    9.98    1.31
 -12  10   3    6.45    1.04
 -11  10   3   -0.26    0.59
 -10  10   3    2.40    0.76
  -9  10   3    0.45    0.62
  -8  10   3   -0.20    0.59
  -7  10   3   10.64    1.26
  -6  10   3   35.84    3.30
  -5  10   3    0.58    0.64
  -4  10   3   40.23    2.42
  -3  10   3   30.46    1.95
  -2  10   3   35.94    2.23
  -1  10   3    0.49    0.66
   0  10   3    1.86    0.31
   1  10   3    0.58    0.40
   2  10   3    2.06    0.41
   3  10   3    0.87    0.36
   4  10   3    6.41    0.60
   5  10   3   -0.63    0.33
 -15  11   3   -0.21    0.79
 -14  11   3   -1.11    0.73
 -13  11   3    1.01    0.71
 -12  11   3    8.34    1.17
 -11  11   3   21.75    2.18
 -10  11   3    1.10    0.67
  -9  11   3   53.25    4.65
  -8  11   3   44.70    3.92
  -7  11   3   27.26    2.66
  -6  11   3    5.37    0.97
  -5  11   3   27.61    2.67
  -4  11   3    6.61    0.65
  -3  11   3    0.23    0.34
  -2  11   3    0.04    0.35
  -1  11   3   -0.59    0.31
   0  11   3   18.22    1.40
   1  11   3   -0.20    0.31
   2  11   3    4.04    0.51
   3  11   3    3.14    0.46
   4  11   3   -0.73    0.34
 -15  12   3    5.52    1.16
 -13  12   3    7.56    1.14
 -12  12   3   26.85    2.58
 -11  12   3    0.10    0.64
 -10  12   3    2.63    0.79
  -9  12   3    5.10    0.96
  -8  12   3    0.11    0.65
  -7  12   3    5.85    1.04
  -6  12   3    7.33    1.07
  -5  12   3   26.34    2.52
  -4  12   3    0.30    0.68
  -3  12   3   -0.08    0.65
  -2  12   3    5.67    1.01
  -1  12   3    7.82    1.24
   0  12   3   27.59    2.80
   1  12   3    0.67    0.52
   2  12   3    0.27    0.49
   3  12   3    1.25    0.81
 -14  13   3    1.42    0.83
 -13  13   3    0.09    0.66
 -12  13   3    0.31    0.65
 -11  13   3    6.24    0.99
 -10  13   3    1.22    0.71
  -9  13   3    0.10    0.67
  -8  13   3    1.58    0.73
  -7  13   3    6.03    1.04
  -6  13   3    1.57    0.83
  -5  13   3    4.83    1.00
  -4  13   3    3.42    0.88
  -3  13   3    8.82    1.23
  -2  13   3    1.08    0.74
  -1  13   3    7.59    1.24
   0  13   3    0.83    0.53
   1  13   3    1.71    0.76
 -13  14   3    0.77    0.77
 -12  14   3   -0.14    0.65
 -11  14   3    3.48    0.84
 -10  14   3    5.67    1.03
  -9  14   3    2.64    0.81
  -8  14   3   14.82    1.62
  -7  14   3    8.43    1.30
  -6  14   3    1.88    0.79
  -5  14   3    5.17    0.97
  -4  14   3    0.01    0.69
  -3  14   3   -0.79    0.65
  -2  14   3   45.15    4.02
  -1  14   3    0.27    0.68
 -12  15   3   -0.56    0.74
 -11  15   3    0.26    0.69
 -10  15   3   -0.32    0.69
  -9  15   3    0.21    0.69
  -8  15   3   -0.19    0.68
  -7  15   3   50.63    4.54
  -6  15   3    6.59    1.15
  -5  15   3    4.02    0.90
  -4  15   3    0.48    0.71
  -3  15   3    5.81    1.06
  -9  16   3   -0.40    0.68
  -8  16   3    0.36    0.72
  -7  16   3    0.38    0.72
   9 -15   4    0.44    0.92
  10 -15   4    2.56    1.07
   7 -14   4   -0.18    0.85
   8 -14   4    4.81    1.13
   9 -14   4    0.92    0.87
  10 -14   4    0.43    0.69
  11 -14   4   -0.75    0.60
  12 -14   4    7.14    0.97
   5 -13   4    5.95    1.09
   6 -13   4    3.99    1.01
   7 -13   4    0.14    0.82
   8 -13   4    5.00    0.75
   9 -13   4    3.73    0.74
  10 -13   4    6.59    0.89
  11 -13   4   -0.49    0.60
  12 -13   4    6.50    0.98
  13 -13   4   12.42    1.30
   3 -12   4   -0.06    0.72
   4 -12   4    3.26    0.92
   5 -12   4    2.79    0.91
   6 -12   4    1.80    0.58
   7 -12   4   10.67    0.97
   8 -12   4   13.40    1.14
   9 -12   4    2.81    0.69
  10 -12   4   17.67    1.42
  11 -12   4    8.58    1.00
  12 -12   4   12.89    1.21
  13 -12   4    5.62    0.88
  14 -12   4    3.00    0.79
   2 -11   4    3.73    0.84
   3 -11   4    5.53    1.00
   4 -11   4   10.06    1.32
   5 -11   4    1.14    0.47
   6 -11   4    1.85    0.54
   7 -11   4   11.87    1.07
   8 -11   4   60.33    3.51
   9 -11   4   24.69    1.82
  10 -11   4    3.28    0.69
  11 -11   4   -0.66    0.66
  12 -11   4    2.04    0.69
  13 -11   4   10.85    1.11
  14 -11   4    0.35    0.68
   0 -10   4   -0.05    0.63
   1 -10   4    0.43    0.66
   2 -10   4    3.88    0.86
   3 -10   4   16.19    1.62
   4 -10   4   11.88    0.93
   5 -10   4   56.75    4.67
   6 -10   4   -0.15    0.51
   7 -10   4   40.05    2.46
   8 -10   4   18.79    1.44
   9 -10   4    6.94    0.88
  10 -10   4    0.95    0.62
  11 -10   4    2.55    0.71
  12 -10   4    3.88    0.76
  13 -10   4    0.59    0.64
  14 -10   4    4.51    0.83
  15 -10   4    4.15    0.79
  -1  -9   4    8.18    1.03
   1  -9   4    2.00    0.71
   2  -9   4   12.74    1.35
   3  -9   4    4.56    0.49
   4  -9   4   49.06    2.85
   5  -9   4   37.44    2.38
   6  -9   4    6.60    0.77
   7  -9   4   -0.13    0.52
   8  -9   4   58.96    3.57
   9  -9   4   67.91    4.36
  10  -9   4   -1.25    0.52
  11  -9   4    2.57    0.70
  12  -9   4   -0.24    0.59
  13  -9   4   12.16    1.23
  14  -9   4    0.12    0.61
  15  -9   4    1.80    0.68
  -2  -8   4   20.60    1.79
  -1  -8   4   63.07    4.79
   0  -8   4   14.65    1.43
   1  -8   4    3.00    0.76
   2  -8   4    0.37    0.24
   3  -8   4    0.80    0.37
   4  -8   4   12.63    1.00
   5  -8   4   -0.51    0.45
   6  -8   4   14.22    1.13
   7  -8   4   38.51    2.50
   8  -8   4   11.74    1.06
   9  -8   4    2.59    0.66
  10  -8   4    4.27    0.71
  11  -8   4    4.89    0.78
  12  -8   4    1.75    0.65
  13  -8   4    3.70    0.76
  14  -8   4    7.35    0.92
  15  -8   4    1.35    0.65
  -2  -7   4    0.54    0.55
  -1  -7   4   40.10    3.26
   0  -7   4   10.52    1.27
   1  -7   4   22.88    1.13
   2  -7   4    6.18    0.56
   3  -7   4    0.08    0.36
   4  -7   4    6.90    0.71
   5  -7   4    0.24    0.43
   6  -7   4   26.05    1.76
   7  -7   4   10.28    0.97
   8  -7   4    3.42    0.64
   9  -7   4    8.71    0.94
  10  -7   4   13.42    1.21
  11  -7   4    8.90    0.95
  12  -7   4    2.85    0.68
  13  -7   4    4.26    0.75
  14  -7   4    0.23    0.60
  15  -7   4    2.72    0.72
   0  -6   4   21.85    2.15
   1  -6   4    0.24    0.28
   2  -6   4   93.50    5.48
   3  -6   4   52.84    3.21
   4  -6   4    7.00    1.13
   5  -6   4    0.34    0.40
   6  -6   4   19.70    1.49
   7  -6   4   20.46    1.55
   8  -6   4   -0.06    0.48
   9  -6   4    3.02    0.64
  10  -6   4    9.62    1.07
  11  -6   4    2.26    0.65
  12  -6   4    2.27    0.62
  13  -6   4    0.26    0.60
  14  -6   4    5.56    0.80
  15  -6   4   -0.06    0.59
  -1  -5   4   -0.15    0.14
   0  -5   4    1.41    0.35
   1  -5   4    0.49    0.30
   2  -5   4    0.05    0.34
   3  -5   4   13.79    1.06
   4  -5   4    6.74    0.69
   5  -5   4    1.27    0.44
   6  -5   4    0.19    0.47
   7  -5   4    4.85    0.67
   8  -5   4    0.74    0.50
   9  -5   4   39.01    2.83
  10  -5   4   47.30    3.05
  11  -5   4    1.30    0.59
  12  -5   4    7.72    0.92
  13  -5   4    3.85    0.73
  14  -5   4    0.38    0.59
  15  -5   4    2.36    0.69
  -5  -4   4   47.70    3.79
  -4  -4   4   12.98    1.21
  -3  -4   4    6.98    0.72
  -2  -4   4    7.80    0.66
  -1  -4   4    8.24    0.51
   0  -4   4  109.41    6.70
   1  -4   4   33.44    1.80
   2  -4   4    1.03    0.30
   3  -4   4   13.37    1.04
   4  -4   4  107.26    6.75
   5  -4   4    0.28    0.42
   6  -4   4   80.32    5.08
   7  -4   4    0.04    0.45
   8  -4   4   12.22    1.11
   9  -4   4   33.19    2.21
  10  -4   4    0.46    0.53
  11  -4   4   10.61    1.03
  12  -4   4    9.78    1.03
  13  -4   4    4.77    0.74
  14  -4   4    0.93    0.60
  -6  -3   4    4.27    0.62
  -5  -3   4    0.66    0.32
  -4  -3   4   -0.19    0.29
  -3  -3   4   49.08    2.86
  -2  -3   4   14.07    1.01
  -1  -3   4   14.08    0.98
   0  -3   4   66.52    6.20
   1  -3   4   11.18    0.89
   2  -3   4   10.80    0.69
   3  -3   4   69.36    3.54
   4  -3   4   34.86    1.79
   5  -3   4    0.26    0.29
   6  -3   4   47.37    2.95
   7  -3   4    6.72    0.75
   8  -3   4   -0.24    0.46
   9  -3   4    6.07    0.76
  10  -3   4   32.62    2.21
  11  -3   4   48.22    3.06
  12  -3   4    2.91    0.62
  13  -3   4    6.67    0.83
  14  -3   4    0.70    0.58
  -8  -2   4    2.72    0.79
  -7  -2   4    7.28    1.17
  -6  -2   4    0.07    0.34
  -5  -2   4    4.45    0.53
  -4  -2   4   82.39    5.02
  -3  -2   4    0.71    0.33
  -2  -2   4    0.49    0.35
  -1  -2   4   11.39    0.82
   0  -2   4   41.14    2.63
   1  -2   4    2.33    0.30
   2  -2   4   42.28    1.84
   3  -2   4   11.68    0.64
   4  -2   4    0.99    0.29
   5  -2   4   14.53    0.86
   6  -2   4    8.67    0.59
   7  -2   4   -0.30    0.45
   8  -2   4   10.36    0.98
   9  -2   4    0.03    0.48
  10  -2   4   15.87    1.36
  11  -2   4   22.30    1.68
  12  -2   4   14.93    1.31
  13  -2   4    0.29    0.58
  14  -2   4    4.61    0.79
  -9  -1   4    0.60    0.65
  -8  -1   4    1.40    0.67
  -7  -1   4    4.56    0.80
  -6  -1   4   17.18    1.40
  -5  -1   4   -0.29    0.34
  -4  -1   4    0.18    0.34
  -3  -1   4   34.81    2.18
  -2  -1   4   12.33    0.73
  -1  -1   4    1.68    0.33
   0  -1   4   41.06    2.56
   1  -1   4   41.68    2.52
   2  -1   4    1.99    0.27
   3  -1   4   10.99    0.60
   4  -1   4   12.68    0.82
   5  -1   4    7.81    0.57
   6  -1   4   -0.10    0.23
   7  -1   4   26.14    1.36
   8  -1   4   33.72    2.36
   9  -1   4   54.19    3.45
  10  -1   4    5.51    0.80
  11  -1   4    1.72    0.58
  12  -1   4    7.62    0.91
  13  -1   4    7.15    1.37
 -11   0   4    0.73    0.68
 -10   0   4   -0.10    0.61
  -9   0   4   62.18    6.01
  -8   0   4    9.77    1.29
  -7   0   4   10.14    1.23
  -6   0   4   16.44    2.01
  -5   0   4    0.86    0.39
  -4   0   4  114.26    5.50
  -3   0   4   73.42    3.53
  -2   0   4   42.18    2.12
  -1   0   4   41.10    2.50
   0   0   4  142.95    8.64
   1   0   4   43.73    2.55
   2   0   4   43.61    1.88
   3   0   4   72.43    3.11
   4   0   4  112.30    5.50
   5   0   4    0.97    0.29
   6   0   4   20.06    1.22
   7   0   4   11.30    0.71
   8   0   4   11.27    1.06
   9   0   4   62.97    3.99
  10   0   4    0.59    0.51
  11   0   4    0.71    0.54
  12   0   4   10.65    1.06
  13   0   4   13.91    1.23
 -12   1   4    6.30    1.08
 -11   1   4    3.67    0.78
 -10   1   4    7.56    1.04
  -9   1   4   53.20    4.90
  -8   1   4   35.91    3.40
  -7   1   4   24.26    2.39
  -6   1   4    0.16    0.55
  -5   1   4    7.10    0.93
  -4   1   4   12.87    1.03
  -3   1   4   10.20    0.67
  -2   1   4    1.70    0.29
  -1   1   4   43.99    2.55
   0   1   4   38.62    2.50
   1   1   4    2.07    0.33
   2   1   4   11.58    0.85
   3   1   4   35.33    1.57
   4   1   4   -0.02    0.27
   5   1   4    0.03    0.27
   6   1   4   19.94    1.23
   7   1   4    3.46    0.38
   8   1   4    1.96    0.30
   9   1   4    0.63    0.52
  10   1   4    1.84    0.58
  11   1   4    1.23    0.59
  12   1   4    5.72    0.80
 -13   2   4   -0.10    0.61
 -12   2   4   15.77    1.76
 -11   2   4   20.85    2.34
 -10   2   4   16.21    1.82
  -9   2   4    0.69    0.57
  -8   2   4   11.53    1.46
  -7   2   4   -0.03    0.53
  -6   2   4   10.06    1.13
  -5   2   4   12.32    1.50
  -4   2   4    0.32    0.43
  -3   2   4   12.36    0.87
  -2   2   4   45.92    2.62
  -1   2   4    1.84    0.28
   0   2   4   43.08    2.55
   1   2   4   10.96    1.03
   2   2   4    0.91    0.25
   3   2   4    0.34    0.23
   4   2   4   90.01    4.50
   5   2   4    5.13    0.48
   6   2   4   -0.28    0.26
   7   2   4    9.63    0.71
   8   2   4    2.82    0.37
   9   2   4    2.70    0.60
  10   2   4    3.97    0.66
  11   2   4   10.35    1.02
  12   2   4    3.63    0.69
 -14   3   4    1.03    0.68
 -13   3   4    6.03    1.00
 -12   3   4    2.67    0.79
 -11   3   4   51.61    4.79
 -10   3   4   33.45    3.34
  -9   3   4    5.26    0.98
  -8   3   4   -0.79    0.52
  -7   3   4    5.60    0.96
  -6   3   4   49.86    4.56
  -5   3   4    0.28    0.54
  -4   3   4   36.62    3.16
  -3   3   4   70.84    6.20
  -2   3   4   10.51    0.75
  -1   3   4   11.60    0.81
   0   3   4   72.86    4.27
   1   3   4   14.56    0.94
   2   3   4   15.98    0.85
   3   3   4   53.10    2.28
   4   3   4   -0.48    0.29
   5   3   4   -0.23    0.43
   6   3   4    4.56    0.50
   7   3   4   13.87    0.86
   8   3   4    6.22    0.56
   9   3   4   -0.27    0.48
  10   3   4   -0.29    0.51
  11   3   4    1.58    0.87
 -14   4   4   -0.03    0.69
 -13   4   4    3.17    0.82
 -12   4   4   10.23    1.37
 -11   4   4   11.02    1.40
 -10   4   4   -0.43    0.54
  -9   4   4   34.52    3.34
  -8   4   4   11.90    1.43
  -7   4   4    0.34    0.55
  -6   4   4   90.21    7.80
  -5   4   4    0.24    0.55
  -4   4   4  113.04    9.53
  -3   4   4   12.55    1.42
  -2   4   4    0.52    0.50
  -1   4   4   33.63    2.09
   0   4   4  115.90    6.68
   1   4   4    7.84    0.60
   2   4   4    8.86    0.59
   3   4   4    7.46    0.48
   4   4   4   12.27    0.81
   5   4   4   45.00    2.33
   6   4   4   13.18    0.79
   7   4   4   10.18    0.71
   8   4   4    3.83    0.61
   9   4   4   16.08    1.32
  10   4   4    2.75    1.05
 -14   5   4    0.98    0.70
 -13   5   4    4.87    0.93
 -12   5   4    8.87    1.28
 -11   5   4    1.36    0.73
 -10   5   4   55.02    4.64
  -9   5   4   44.19    4.05
  -8   5   4    0.28    0.60
  -7   5   4    5.06    0.87
  -6   5   4    0.11    0.52
  -5   5   4   -0.07    0.53
  -4   5   4    5.65    0.94
  -3   5   4   15.55    1.50
  -2   5   4    0.09    0.47
  -1   5   4    0.40    0.07
   0   5   4    0.99    0.23
   1   5   4   -0.15    0.23
   2   5   4    0.24    0.24
   3   5   4    0.35    0.30
   4   5   4   37.67    1.92
   5   5   4   53.00    2.65
   6   5   4    1.56    0.37
   7   5   4    3.27    0.43
   8   5   4    5.28    0.85
   9   5   4    0.80    0.60
  10   5   4    4.77    0.78
 -15   6   4    1.83    0.92
 -14   6   4    5.66    1.02
 -13   6   4    0.51    0.73
 -12   6   4    2.14    0.75
 -11   6   4    2.19    0.72
 -10   6   4    9.42    1.34
  -9   6   4    2.89    0.81
  -8   6   4   -0.40    0.56
  -7   6   4   20.24    2.14
  -6   6   4   18.14    2.12
  -5   6   4   -0.82    0.48
  -4   6   4    7.97    1.05
  -3   6   4   48.75    4.09
  -2   6   4   90.68    7.14
  -1   6   4    0.12    0.08
   0   6   4   22.27    1.09
   1   6   4   26.67    1.32
   2   6   4   13.60    0.81
   3   6   4    6.85    0.49
   4   6   4   -0.53    0.26
   5   6   4    1.45    0.32
   6   6   4    2.63    0.36
   7   6   4    4.48    0.52
   8   6   4    9.54    1.00
   9   6   4    2.50    0.62
 -15   7   4    1.80    0.82
 -14   7   4   -0.51    0.70
 -13   7   4    5.10    0.96
 -12   7   4    2.75    0.82
 -11   7   4   10.34    1.32
 -10   7   4   12.56    1.54
  -9   7   4    9.25    1.28
  -8   7   4    3.59    0.79
  -7   7   4    8.94    1.28
  -6   7   4   21.88    2.40
  -5   7   4    0.19    0.44
  -4   7   4    5.63    0.94
  -3   7   4   -0.29    0.51
  -2   7   4    5.36    0.86
  -1   7   4   22.05    1.07
   0   7   4   11.74    0.63
   1   7   4   39.69    1.95
   2   7   4    0.15    0.29
   3   7   4   38.31    1.68
   4   7   4   12.93    0.71
   5   7   4    9.66    0.65
   6   7   4    0.42    0.35
   7   7   4    0.01    0.51
   8   7   4    1.41    0.61
 -15   8   4    1.93    0.85
 -14   8   4    9.44    1.33
 -13   8   4    6.27    1.11
 -12   8   4    3.27    0.91
 -11   8   4    5.50    1.04
 -10   8   4    4.78    0.88
  -9   8   4    1.44    0.66
  -8   8   4   12.46    1.45
  -7   8   4   34.77    3.28
  -6   8   4   10.47    1.29
  -5   8   4   -0.29    0.43
  -4   8   4   13.38    1.44
  -3   8   4   -0.58    0.53
  -2   8   4    0.24    0.55
  -1   8   4    4.97    0.32
   0   8   4   12.15    0.86
   1   8   4   57.16    3.46
   2   8   4   18.76    0.93
   3   8   4   55.15    2.80
   4   8   4   12.31    0.84
   5   8   4    3.51    0.50
   6   8   4    5.63    0.56
   7   8   4    0.82    0.52
 -15   9   4    2.17    0.85
 -14   9   4   -0.99    0.76
 -13   9   4   14.12    1.80
 -12   9   4    1.09    0.77
 -11   9   4    1.88    0.75
 -10   9   4    0.26    0.62
  -9   9   4   67.80    5.59
  -8   9   4   51.40    4.81
  -7   9   4    0.29    0.58
  -6   9   4    5.39    0.92
  -5   9   4   32.64    3.03
  -4   9   4   44.16    3.96
  -3   9   4    4.38    0.85
  -2   9   4   11.97    1.30
  -1   9   4    2.15    0.34
   0   9   4   74.18    4.24
   1   9   4    7.46    0.68
   2   9   4   24.99    1.38
   3   9   4    2.81    0.44
   4   9   4    3.97    0.47
   5   9   4    1.13    0.39
   6   9   4    0.21    0.47
 -15  10   4    2.72    0.99
 -14  10   4    2.83    0.97
 -13  10   4    0.42    0.79
 -12  10   4    4.00    0.89
 -11  10   4    2.49    0.82
 -10  10   4    0.39    0.65
  -9  10   4    7.33    1.08
  -8  10   4   17.09    1.84
  -7  10   4   33.88    3.03
  -6  10   4    0.14    0.60
  -5  10   4   46.75    4.24
  -4  10   4   10.04    1.43
  -3  10   4   12.97    1.58
  -2  10   4    2.97    0.81
  -1  10   4    0.02    0.35
   0  10   4   -0.21    0.49
   1  10   4    2.87    0.47
   2  10   4   16.66    1.04
   3  10   4    5.85    0.75
   4  10   4   -0.89    0.42
   5  10   4    2.11    0.56
 -14  11   4    1.59    0.85
 -13  11   4   11.29    1.44
 -12  11   4    0.57    0.70
 -11  11   4   -0.50    0.61
 -10  11   4    2.02    0.76
  -9  11   4   20.83    2.20
  -8  11   4   45.52    4.21
  -7  11   4   10.27    1.35
  -6  11   4    1.48    0.71
  -5  11   4    0.90    0.69
  -4  11   4    8.61    1.22
  -3  11   4    4.04    0.94
  -2  11   4    2.34    0.79
  -1  11   4    1.39    0.72
   0  11   4    0.45    0.65
   1  11   4    6.68    0.83
   2  11   4   -0.18    0.48
   3  11   4    0.06    0.45
 -14  12   4    1.73    0.84
 -13  12   4    4.73    1.01
 -12  12   4   12.95    1.49
 -11  12   4    7.41    1.16
 -10  12   4   15.42    1.76
  -9  12   4    3.68    0.84
  -8  12   4   14.08    1.46
  -7  12   4    7.04    1.15
  -6  12   4    2.14    0.75
  -5  12   4    3.46    0.73
  -4  12   4    3.01    0.81
  -3  12   4    1.47    0.73
  -2  12   4    2.39    0.84
  -1  12   4    0.48    0.69
   0  12   4    7.76    1.34
   1  12   4    8.03    0.89
   2  12   4    5.61    0.80
 -13  13   4   12.92    1.61
 -12  13   4    7.84    1.19
 -11  13   4   -0.22    0.66
 -10  13   4    5.40    1.03
  -9  13   4    2.90    0.86
  -8  13   4    3.68    0.93
  -7  13   4    0.11    0.64
  -6  13   4    3.38    0.88
  -5  13   4    5.24    0.97
  -4  13   4   13.54    1.64
  -3  13   4    1.26    0.77
  -2  13   4    8.58    1.32
  -1  13   4    4.98    1.04
   0  13   4   13.94    1.18
 -12  14   4    4.31    1.03
 -11  14   4    0.30    0.70
 -10  14   4   -0.45    0.63
  -9  14   4    1.57    0.74
  -8  14   4    3.97    0.93
  -7  14   4   -0.54    0.61
  -6  14   4    7.30    1.17
  -5  14   4   -0.98    0.61
  -4  14   4    4.04    0.92
  -3  14   4    0.59    0.71
  -2  14   4    2.43    0.84
 -10  15   4    3.11    0.84
  -9  15   4    0.39    0.73
  -8  15   4    2.63    0.87
  -7  15   4    1.89    0.80
  -6  15   4    1.61    0.77
  -5  15   4    3.62    0.93
   7 -14   5    1.38    0.96
   8 -14   5    5.55    1.21
   9 -14   5    0.40    0.97
  10 -14   5    2.90    1.00
   5 -13   5   13.07    1.57
   6 -13   5   10.58    1.57
   7 -13   5    0.92    0.91
   8 -13   5   -0.01    0.89
   9 -13   5    0.19    0.89
  10 -13   5   -0.38    0.63
  11 -13   5    3.81    0.86
  12 -13   5    0.00    0.70
   3 -12   5   16.44    1.64
   4 -12   5   43.31    3.29
   5 -12   5    0.32    0.82
   6 -12   5   23.59    2.46
   7 -12   5    1.08    0.96
   8 -12   5   -0.26    0.60
   9 -12   5    0.10    0.61
  10 -12   5   -0.70    0.61
  11 -12   5    2.64    0.80
  12 -12   5    7.59    0.99
  13 -12   5    2.57    0.75
   2 -11   5    0.97    0.81
   3 -11   5    0.55    0.80
   4 -11   5   17.14    1.86
   5 -11   5    4.47    1.04
   6 -11   5    3.51    0.65
   7 -11   5    1.79    0.63
   8 -11   5    2.42    0.69
   9 -11   5    6.65    0.90
  10 -11   5    0.08    0.62
  11 -11   5    3.96    0.81
  12 -11   5   -0.40    0.64
  13 -11   5    2.20    0.75
   0 -10   5    0.18    0.72
   1 -10   5   -0.37    0.70
   2 -10   5    4.18    0.95
   3 -10   5  111.79    8.69
   4 -10   5    2.12    0.85
   5 -10   5    2.35    0.57
   6 -10   5   20.00    1.44
   7 -10   5    2.95    0.67
   8 -10   5    0.40    0.60
   9 -10   5    4.61    0.78
  10 -10   5   -0.03    0.62
  11 -10   5    8.57    1.03
  12 -10   5   14.37    1.33
  13 -10   5    2.69    0.76
  14 -10   5    5.89    0.89
  -1  -9   5    4.71    0.90
   0  -9   5    8.54    1.14
   1  -9   5   27.80    2.63
   2  -9   5   11.01    1.40
   3  -9   5   23.74    1.60
   4  -9   5    7.15    0.72
   5  -9   5    0.27    0.49
   6  -9   5    6.11    0.80
   7  -9   5    1.64    0.60
   8  -9   5   20.85    1.67
   9  -9   5    6.54    0.83
  10  -9   5   -0.60    0.58
  11  -9   5    0.06    0.60
  12  -9   5   10.31    1.10
  13  -9   5   20.45    1.65
  14  -9   5    0.15    0.60
  -3  -8   5    2.68    0.78
  -2  -8   5    1.16    0.69
  -1  -8   5   23.00    2.04
   0  -8   5    0.49    0.65
   1  -8   5   22.33    2.27
   2  -8   5   21.88    1.47
   3  -8   5   28.44    1.71
   4  -8   5   39.21    2.45
   5  -8   5    6.87    0.78
   6  -8   5   18.84    1.50
   7  -8   5    4.96    0.73
   8  -8   5   -0.08    0.56
   9  -8   5   25.20    1.82
  10  -8   5    3.92    0.72
  11  -8   5    0.10    0.60
  12  -8   5   26.95    2.02
  13  -8   5    9.95    1.03
  14  -8   5    5.31    0.84
  -2  -7   5    1.40    0.68
  -1  -7   5    5.32    0.94
   0  -7   5    4.84    0.91
   1  -7   5    0.97    0.34
   2  -7   5  102.39    5.89
   3  -7   5   13.43    1.03
   4  -7   5   36.06    2.29
   5  -7   5    4.19    0.63
   6  -7   5   23.70    1.73
   7  -7   5    3.83    0.66
   8  -7   5   17.42    1.43
   9  -7   5    9.02    0.94
  10  -7   5   88.74    5.34
  11  -7   5   14.17    1.28
  12  -7   5    0.73    0.59
  13  -7   5    9.05    1.00
  14  -7   5    2.21    0.65
  -1  -6   5   28.94    1.61
   0  -6   5   14.85    0.80
   1  -6   5    1.30    0.40
   2  -6   5    1.14    0.42
   3  -6   5   84.14    7.62
   4  -6   5   15.02    1.20
   5  -6   5   23.20    1.62
   6  -6   5   12.69    1.10
   7  -6   5    1.19    0.54
   8  -6   5   18.40    1.47
   9  -6   5   18.46    1.53
  10  -6   5    1.23    0.59
  11  -6   5    4.34    0.73
  12  -6   5   18.55    1.51
  13  -6   5    1.30    0.62
  14  -6   5    3.82    0.73
  -3  -5   5    7.58    0.51
  -2  -5   5    4.51    0.38
  -1  -5   5   24.84    1.46
   0  -5   5  160.09   12.44
   1  -5   5   20.68    1.41
   2  -5   5   10.56    0.88
   3  -5   5   37.67    2.53
   4  -5   5    2.70    0.52
   5  -5   5  140.37    8.54
   6  -5   5    1.11    0.51
   7  -5   5   87.19    5.24
   8  -5   5   19.54    1.54
   9  -5   5    5.85    0.79
  10  -5   5    1.86    0.60
  11  -5   5    3.27    0.69
  12  -5   5    0.49    0.57
  13  -5   5    1.71    0.64
  14  -5   5    0.51    0.57
  -4  -4   5   31.78    2.16
  -3  -4   5   33.75    2.11
  -2  -4   5   13.84    1.02
  -1  -4   5    3.07    0.35
   0  -4   5    0.09    0.34
   1  -4   5    5.27    0.49
   2  -4   5   -0.25    0.29
   3  -4   5   11.50    0.76
   4  -4   5    1.17    0.36
   5  -4   5   18.94    1.42
   6  -4   5    0.97    0.49
   7  -4   5   11.61    1.03
   8  -4   5   33.25    2.27
   9  -4   5   -0.37    0.49
  10  -4   5   15.05    1.30
  11  -4   5    1.41    0.59
  12  -4   5   -0.80    0.51
  13  -4   5   -0.12    0.54
  14  -4   5    1.39    0.63
  -6  -3   5   21.24    2.12
  -5  -3   5   20.96    1.44
  -4  -3   5   10.64    0.90
  -3  -3   5   87.06    5.01
  -2  -3   5   42.76    2.36
  -1  -3   5   10.83    0.90
   0  -3   5   32.39    2.12
   1  -3   5   -0.04    0.33
   2  -3   5   62.35    3.19
   3  -3   5   32.72    1.74
   4  -3   5    5.11    0.50
   5  -3   5    9.41    0.71
   6  -3   5   89.94    5.02
   7  -3   5   31.33    2.21
   8  -3   5    5.97    0.80
   9  -3   5    4.80    0.76
  10  -3   5    3.47    0.69
  11  -3   5    2.92    0.64
  12  -3   5   -0.42    0.50
  13  -3   5    0.45    0.59
  -8  -2   5    4.26    0.90
  -7  -2   5    7.76    1.17
  -6  -2   5   17.09    1.92
  -5  -2   5   82.66    5.16
  -4  -2   5    0.86    0.41
  -3  -2   5    9.46    0.83
  -2  -2   5   -0.15    0.38
  -1  -2   5   60.52    5.58
   0  -2   5    5.71    0.87
   1  -2   5   16.34    1.20
   2  -2   5    6.54    0.53
   3  -2   5   -0.05    0.30
   4  -2   5   -0.29    0.31
   5  -2   5   35.58    1.93
   6  -2   5   12.52    0.85
   7  -2   5    3.92    0.45
   8  -2   5   19.66    1.49
   9  -2   5    1.73    0.58
  10  -2   5    0.80    0.56
  11  -2   5    5.15    0.75
  12  -2   5   -0.40    0.55
  13  -2   5    4.03    0.71
 -10  -1   5    8.69    1.30
  -9  -1   5    0.01    0.60
  -8  -1   5   24.46    2.44
  -7  -1   5   16.08    1.88
  -6  -1   5    0.07    0.62
  -5  -1   5    0.65    0.62
  -4  -1   5   18.20    1.93
  -3  -1   5    5.84    0.64
  -2  -1   5    0.65    0.38
  -1  -1   5   16.75    1.71
   0  -1   5    9.19    0.76
   1  -1   5    8.51    0.71
   2  -1   5   16.20    1.01
   3  -1   5   67.14    3.24
   4  -1   5   11.53    1.01
   5  -1   5    2.97    0.39
   6  -1   5   21.77    1.28
   7  -1   5   25.57    1.48
   8  -1   5    5.44    0.47
   9  -1   5   17.69    1.50
  10  -1   5    4.25    0.70
  11  -1   5    0.32    0.55
  12  -1   5    2.35    0.63
  13  -1   5    1.88    0.65
 -11   0   5    4.89    0.99
 -10   0   5    0.29    0.62
  -9   0   5    6.46    1.01
  -8   0   5   -0.44    0.61
  -7   0   5    4.02    0.86
  -6   0   5   11.01    1.46
  -5   0   5  137.14   12.05
  -4   0   5    1.46    0.64
  -3   0   5   33.86    3.02
  -2   0   5    5.66    0.58
  -1   0   5    9.49    0.74
   0   0   5    0.00    0.26
   1   0   5    9.70    0.75
   2   0   5    6.53    0.49
   3   0   5   34.99    1.79
   4   0   5    1.11    0.41
   5   0   5  147.35    7.25
   6   0   5   12.84    0.88
   7   0   5    5.05    0.48
   8   0   5   -0.37    0.27
   9   0   5    7.36    0.88
  10   0   5   -0.55    0.49
  11   0   5    5.26    0.79
  12   0   5    6.46    0.84
 -13   1   5    1.71    0.73
 -12   1   5    2.11    0.82
 -11   1   5   -0.56    0.57
 -10   1   5    3.54    0.84
  -9   1   5   19.51    2.18
  -8   1   5    4.72    0.90
  -7   1   5   20.96    2.35
  -6   1   5   19.07    2.19
  -5   1   5    3.82    0.79
  -4   1   5    9.43    0.86
  -3   1   5   63.94    3.88
  -2   1   5   17.78    1.18
  -1   1   5    9.19    0.74
   0   1   5    8.54    0.70
   1   1   5   17.52    1.16
   2   1   5   -0.10    0.27
   3   1   5    5.67    0.53
   4   1   5   20.12    1.18
   5   1   5    0.64    0.51
   6   1   5    0.75    0.33
   7   1   5   21.46    1.30
   8   1   5   26.77    1.92
   9   1   5    0.37    0.53
  10   1   5    9.92    1.01
  11   1   5    1.21    0.57
  12   1   5    4.08    0.71
 -13   2   5    3.82    0.92
 -12   2   5    0.28    0.63
 -11   2   5    6.19    1.01
 -10   2   5    0.87    0.64
  -9   2   5    2.06    0.71
  -8   2   5   18.76    2.09
  -7   2   5    4.40    0.87
  -6   2   5   14.64    1.68
  -5   2   5   38.41    3.60
  -4   2   5    0.24    0.57
  -3   2   5    0.41    0.28
  -2   2   5    5.87    0.53
  -1   2   5   17.57    1.14
   0   2   5    5.62    0.53
   1   2   5   65.05    3.85
   2   2   5   -0.41    0.28
   3   2   5   10.48    0.62
   4   2   5    0.72    0.35
   5   2   5   96.57    4.83
   6   2   5   20.78    1.61
   7   2   5    9.92    0.75
   8   2   5    3.67    0.69
   9   2   5   -0.05    0.52
  10   2   5   15.96    1.40
  11   2   5    3.53    0.71
 -13   3   5    0.75    0.76
 -12   3   5   -0.50    0.62
 -11   3   5    3.18    0.80
 -10   3   5    2.75    0.81
  -9   3   5    7.58    1.08
  -8   3   5    5.53    1.01
  -7   3   5   32.26    3.23
  -6   3   5   85.36    7.59
  -5   3   5   11.15    1.29
  -4   3   5    5.56    0.90
  -3   3   5   32.78    2.09
  -2   3   5   64.65    3.89
  -1   3   5    0.03    0.22
   0   3   5   32.43    2.04
   1   3   5   11.77    0.83
   2   3   5   41.56    2.05
   3   3   5   91.74    3.80
   4   3   5   13.00    0.87
   5   3   5   23.56    1.42
   6   3   5   23.13    1.36
   7   3   5  103.67    4.98
   8   3   5    0.33    0.53
   9   3   5    9.55    1.05
  10   3   5    5.46    0.76
 -14   4   5   -0.25    0.69
 -13   4   5   -0.52    0.68
 -12   4   5   -0.26    0.61
 -11   4   5    0.81    0.69
 -10   4   5   15.86    1.91
  -9   4   5   -0.23    0.62
  -8   4   5   34.01    3.37
  -7   4   5   10.85    1.46
  -6   4   5    0.13    0.49
  -5   4   5   20.30    2.04
  -4   4   5    2.33    0.67
  -3   4   5    8.86    1.27
  -2   4   5    0.17    0.14
  -1   4   5    5.73    0.47
   0   4   5    1.46    0.27
   1   4   5    3.36    0.40
   2   4   5   16.76    0.95
   3   4   5   35.65    1.89
   4   4   5   36.18    1.97
   5   4   5    5.73    0.56
   6   4   5    0.97    0.38
   7   4   5   14.44    1.00
   8   4   5   31.08    2.25
   9   4   5   24.82    1.74
  10   4   5    7.97    1.36
 -14   5   5   -0.55    0.68
 -13   5   5    1.05    0.73
 -12   5   5    1.34    0.79
 -11   5   5    3.59    0.89
 -10   5   5    2.46    0.81
  -9   5   5    6.51    1.03
  -8   5   5   24.19    2.45
  -7   5   5   85.92    8.35
  -6   5   5    2.09    0.69
  -5   5   5  141.24   12.54
  -4   5   5    1.89    0.66
  -3   5   5   38.25    3.34
  -2   5   5    8.51    1.14
  -1   5   5   20.30    1.89
   0   5   5  148.39    8.45
   1   5   5   24.19    1.46
   2   5   5    4.51    0.45
   3   5   5    6.45    0.60
   4   5   5    0.45    0.35
   5   5   5    3.56    0.45
   6   5   5    3.77    0.49
   7   5   5    0.53    0.55
   8   5   5   10.71    1.53
   9   5   5    1.68    0.89
 -14   6   5    4.39    1.00
 -13   6   5    1.11    0.82
 -12   6   5   21.33    2.31
 -11   6   5    3.45    0.95
 -10   6   5    2.26    0.75
  -9   6   5   25.54    2.37
  -8   6   5   19.53    2.17
  -7   6   5    1.87    0.70
  -6   6   5   13.20    1.55
  -5   6   5   18.95    2.20
  -4   6   5   12.15    1.46
  -3   6   5   78.77    7.09
  -2   6   5    1.17    0.59
  -1   6   5    1.23    0.59
   0   6   5   13.34    0.72
   1   6   5   25.14    1.28
   2   6   5   21.65    1.19
   3   6   5    6.72    0.61
   4   6   5   18.45    1.13
   5   6   5    4.34    0.44
   6   6   5   23.70    1.36
   7   6   5    9.67    1.04
   8   6   5    6.74    0.87
 -14   7   5    1.10    0.81
 -13   7   5   11.35    1.43
 -12   7   5    1.51    0.77
 -11   7   5   15.75    1.77
 -10   7   5   92.61    8.61
  -9   7   5   10.59    1.37
  -8   7   5   20.79    2.23
  -7   7   5    3.84    0.86
  -6   7   5   23.06    2.55
  -5   7   5    2.78    0.74
  -4   7   5   30.63    3.04
  -3   7   5   10.66    1.34
  -2   7   5   82.69    7.32
  -1   7   5    2.00    0.63
   0   7   5    4.53    0.44
   1   7   5    5.51    0.47
   2   7   5    1.51    0.37
   3   7   5    4.25    0.42
   4   7   5    1.66    0.36
   5   7   5    0.90    0.38
   6   7   5    0.74    0.38
   7   7   5    2.07    0.62
 -14   8   5    7.96    1.26
 -13   8   5   10.19    1.41
 -12   8   5   33.67    3.15
 -11   8   5   -0.71    0.72
 -10   8   5    4.02    0.94
  -9   8   5   26.87    2.61
  -8   8   5    0.95    0.66
  -7   8   5    3.29    0.86
  -6   8   5   18.70    1.93
  -5   8   5    4.71    0.97
  -4   8   5   34.99    3.14
  -3   8   5   19.96    2.07
  -2   8   5   17.13    1.94
  -1   8   5   17.18    1.88
   0   8   5   -0.01    0.25
   1   8   5   24.52    1.26
   2   8   5    0.84    0.30
   3   8   5    3.12    0.39
   4   8   5    0.52    0.37
   5   8   5    0.21    0.38
   6   8   5    3.70    1.13
 -14   9   5   -0.24    0.75
 -13   9   5   24.41    2.43
 -12   9   5   11.05    1.45
 -11   9   5    0.21    0.70
 -10   9   5   -0.11    0.67
  -9   9   5    7.27    1.11
  -8   9   5   18.42    2.05
  -7   9   5    1.07    0.69
  -6   9   5    4.61    0.91
  -5   9   5   -0.22    0.55
  -4   9   5    6.38    1.02
  -3   9   5   21.33    2.06
  -2   9   5    8.37    1.17
  -1   9   5   22.92    2.42
   0   9   5    5.78    0.97
   1   9   5    4.71    0.64
   2   9   5    5.73    0.78
   3   9   5    0.45    0.49
   4   9   5    0.20    0.48
   5   9   5    0.30    0.46
 -14  10   5    6.23    1.22
 -13  10   5    4.76    0.96
 -12  10   5   20.27    1.99
 -11  10   5    8.60    1.27
 -10  10   5   -0.18    0.61
  -9  10   5    4.11    0.91
  -8  10   5    0.00    0.66
  -7  10   5    2.81    0.83
  -6  10   5   13.80    1.70
  -5  10   5    2.24    0.77
  -4  10   5    1.39    0.69
  -3  10   5   81.71    7.47
  -2  10   5    4.71    0.90
  -1  10   5   -0.59    0.57
   0  10   5    0.15    0.45
   1  10   5   -0.02    0.70
   2  10   5    0.67    0.51
   3  10   5    0.43    0.52
   4  10   5    1.63    0.56
 -13  11   5    4.51    1.03
 -12  11   5    0.14    0.72
 -11  11   5    5.08    1.02
 -10  11   5   -0.31    0.63
  -9  11   5    5.26    0.99
  -8  11   5    2.29    0.81
  -7  11   5    1.98    0.75
  -6  11   5    4.10    0.87
  -5  11   5    4.70    0.93
  -4  11   5   14.17    1.68
  -3  11   5    0.30    0.65
  -2  11   5   -0.03    0.62
  -1  11   5   11.13    1.33
   0  11   5    4.20    0.91
   1  11   5    3.89    0.69
   2  11   5    4.58    0.71
 -13  12   5    2.45    0.87
 -12  12   5    6.45    1.10
 -11  12   5    2.31    0.83
 -10  12   5   -0.13    0.64
  -9  12   5    0.60    0.68
  -8  12   5    1.17    0.70
  -7  12   5    1.09    0.72
  -6  12   5   19.40    2.04
  -5  12   5    0.25    0.66
  -4  12   5   29.39    2.75
  -3  12   5   10.54    1.40
  -2  12   5   16.13    1.79
  -1  12   5   -0.43    0.62
   0  12   5    7.09    1.13
   1  12   5    0.36    0.51
 -12  13   5    1.10    0.73
 -11  13   5    3.75    0.89
 -10  13   5    0.24    0.69
  -9  13   5   -0.28    0.64
  -8  13   5    0.60    0.72
  -7  13   5   -0.22    0.67
  -6  13   5    8.56    1.27
  -5  13   5    7.12    1.23
  -4  13   5   20.05    2.16
  -3  13   5    3.91    0.92
  -2  13   5    4.53    0.93
  -1  13   5    4.70    0.92
 -10  14   5    0.56    0.71
  -9  14   5   -0.69    0.67
  -8  14   5    5.73    1.02
  -7  14   5    1.17    0.78
  -6  14   5    6.20    1.12
  -5  14   5   -0.35    0.62
  -4  14   5    6.36    1.13
   6 -13   6   29.15    2.64
   7 -13   6    0.99    0.94
   8 -13   6   20.84    2.26
   9 -13   6    0.99    0.97
   4 -12   6   21.97    2.30
   5 -12   6   19.50    2.36
   6 -12   6    1.80    0.92
   7 -12   6    6.60    1.34
   8 -12   6   13.95    1.71
   9 -12   6    4.40    1.16
  10 -12   6   -0.20    0.68
  11 -12   6   15.35    1.38
   2 -11   6    3.23    0.99
   4 -11   6   12.08    1.53
   5 -11   6    5.46    1.07
   6 -11   6    0.75    0.82
   7 -11   6    2.85    0.96
   8 -11   6    9.10    0.98
   9 -11   6    1.13    0.68
  10 -11   6    0.49    0.65
  11 -11   6    7.88    1.01
  12 -11   6    7.45    1.00
   0 -10   6   -0.41    0.78
   1 -10   6    0.84    0.81
   2 -10   6    1.00    0.81
   3 -10   6    2.33    0.90
   4 -10   6   10.97    1.55
   5 -10   6    7.45    1.35
   6 -10   6    1.32    0.65
   7 -10   6    0.59    0.61
   8 -10   6    1.36    0.65
   9 -10   6    0.58    0.61
  10 -10   6    0.38    0.60
  11 -10   6    0.50    0.65
  12 -10   6    0.12    0.64
  -1  -9   6   -0.24    0.72
   0  -9   6   -0.57    0.72
   1  -9   6    9.11    1.26
   2  -9   6    3.19    0.89
   3  -9   6   61.22    5.78
   4  -9   6    0.71    0.51
   5  -9   6    6.67    0.76
   6  -9   6    8.74    0.89
   7  -9   6    2.31    0.65
   8  -9   6    0.74    0.61
   9  -9   6    0.22    0.57
  10  -9   6    2.14    0.68
  11  -9   6    2.56    0.72
  12  -9   6   18.55    1.58
  13  -9   6    0.41    0.62
  -3  -8   6    9.06    1.25
  -2  -8   6    1.62    0.81
  -1  -8   6    1.87    0.80
   0  -8   6   -0.42    0.68
   1  -8   6    1.50    0.84
   2  -8   6   22.39    2.42
   3  -8   6   11.34    1.44
   4  -8   6   26.70    1.81
   5  -8   6    2.75    0.60
   6  -8   6    1.61    0.58
   7  -8   6   13.63    1.16
   8  -8   6   -0.08    0.54
   9  -8   6   10.77    0.99
  10  -8   6    0.40    0.56
  11  -8   6   36.70    2.56
  12  -8   6   17.52    1.44
  13  -8   6    1.03    0.62
  -2  -7   6    2.29    0.80
  -1  -7   6   13.33    1.54
   0  -7   6    5.81    1.00
   1  -7   6    6.28    0.62
   2  -7   6    0.31    0.41
   3  -7   6   10.70    0.94
   4  -7   6    0.12    0.47
   5  -7   6    5.77    0.72
   6  -7   6    1.21    0.55
   7  -7   6    4.78    0.70
   8  -7   6    1.21    0.57
   9  -7   6    3.33    0.68
  10  -7   6    1.93    0.64
  11  -7   6   10.30    1.06
  12  -7   6   18.34    1.57
  13  -7   6   21.50    1.75
  -1  -6   6    1.01    0.35
   0  -6   6   27.03    1.66
   1  -6   6   20.31    1.39
   2  -6   6   44.37    2.71
   3  -6   6   14.34    1.17
   4  -6   6   55.74    3.50
   5  -6   6    3.64    0.63
   6  -6   6   21.75    1.68
   7  -6   6    4.72    0.72
   8  -6   6   19.66    1.56
   9  -6   6   63.51    5.33
  10  -6   6    9.72    1.05
  11  -6   6    3.44    0.72
  12  -6   6    0.00    0.55
  13  -6   6    1.02    0.60
  -2  -5   6    6.97    0.79
  -1  -5   6    5.97    0.76
   0  -5   6   44.95    1.99
   1  -5   6   44.02    2.30
   2  -5   6   27.48    1.56
   3  -5   6   -0.24    0.45
   4  -5   6  119.20    7.37
   5  -5   6   41.26    2.71
   6  -5   6   17.15    1.38
   7  -5   6   -0.11    0.50
   8  -5   6    7.73    0.90
   9  -5   6    1.06    0.59
  10  -5   6    9.31    1.01
  11  -5   6    1.45    0.62
  12  -5   6    5.35    0.82
  13  -5   6   17.07    1.44
  -5  -4   6    0.36    0.58
  -4  -4   6   22.41    2.28
  -3  -4   6   -0.49    0.63
  -2  -4   6   47.05    4.76
  -1  -4   6  127.65    7.37
   0  -4   6    0.06    0.36
   1  -4   6   35.43    1.99
   2  -4   6    3.90    0.46
   3  -4   6    0.25    0.35
   4  -4   6    0.14    0.36
   5  -4   6   42.13    2.20
   6  -4   6   35.31    2.48
   7  -4   6    8.77    0.94
   8  -4   6   21.60    1.66
   9  -4   6    3.66    0.71
  10  -4   6    1.37    0.63
  11  -4   6    1.44    0.62
  12  -4   6   12.73    1.18
  13  -4   6    1.09    0.61
  -7  -3   6    0.50    0.77
  -6  -3   6   56.38    5.19
  -5  -3   6    7.05    1.18
  -4  -3   6    8.45    1.25
  -3  -3   6   12.60    1.10
  -2  -3   6   -0.93    0.56
  -1  -3   6    0.92    0.63
   0  -3   6   13.65    1.07
   1  -3   6   23.47    1.63
   2  -3   6    9.29    0.68
   3  -3   6   13.24    0.93
   4  -3   6   34.44    1.92
   5  -3   6   28.71    1.50
   6  -3   6   14.35    0.92
   7  -3   6    0.86    0.56
   8  -3   6    1.09    0.58
   9  -3   6    6.87    0.87
  10  -3   6    0.52    0.58
  11  -3   6    6.35    0.88
  12  -3   6    2.27    0.68
  -9  -2   6    2.31    0.92
  -8  -2   6   -0.60    0.63
  -7  -2   6    3.41    0.86
  -6  -2   6   17.73    2.07
  -5  -2   6    0.37    0.64
  -4  -2   6   38.50    3.48
  -3  -2   6   25.41    2.55
  -2  -2   6    4.29    0.87
  -1  -2   6    9.34    1.22
   0  -2   6   -0.24    0.54
   1  -2   6    0.67    0.40
   2  -2   6    0.69    0.37
   3  -2   6   22.30    1.33
   4  -2   6    4.22    0.49
   5  -2   6   -0.38    0.34
   6  -2   6   56.24    2.77
   7  -2   6    4.60    0.77
   8  -2   6    1.87    0.61
   9  -2   6    2.73    0.68
  10  -2   6    0.98    0.60
  11  -2   6    2.39    0.66
  12  -2   6    0.11    0.55
 -10  -1   6    0.51    0.70
  -9  -1   6    1.42    0.71
  -8  -1   6    7.19    1.15
  -7  -1   6    0.54    0.68
  -6  -1   6    3.36    0.90
  -5  -1   6   16.63    1.89
  -4  -1   6   39.65    3.80
  -3  -1   6   35.10    3.32
  -2  -1   6   23.03    2.29
  -1  -1   6    0.33    0.60
   0  -1   6   39.80    3.63
   1  -1   6   43.18    3.61
   2  -1   6    0.66    0.37
   3  -1   6    9.91    0.74
   4  -1   6   -0.35    0.34
   5  -1   6  124.61    6.04
   6  -1   6    5.06    0.54
   7  -1   6    0.70    0.55
   8  -1   6   11.12    1.13
   9  -1   6    1.38    0.62
  10  -1   6   -0.07    0.54
  11  -1   6    1.59    0.64
  12  -1   6   12.44    1.18
 -11   0   6    7.80    1.25
 -10   0   6    0.01    0.64
  -9   0   6   -0.70    0.63
  -8   0   6    0.04    0.65
  -7   0   6    4.18    0.90
  -6   0   6   21.87    2.37
  -5   0   6   38.69    3.77
  -4   0   6    0.20    0.61
  -3   0   6   15.21    1.61
  -2   0   6   -0.15    0.58
  -1   0   6   38.59    3.62
   0   0   6   66.26    5.88
   1   0   6   36.07    3.60
   2   0   6    0.41    0.39
   3   0   6   13.74    0.94
   4   0   6   -0.59    0.35
   5   0   6   44.57    2.35
   6   0   6   24.25    1.41
   7   0   6    4.10    0.72
   8   0   6    0.55    0.56
   9   0   6    0.06    0.55
  10   0   6    0.89    0.58
  11   0   6    9.20    0.97
 -12   1   6   14.49    1.66
 -11   1   6    0.02    0.65
 -10   1   6   -0.76    0.60
  -9   1   6    0.57    0.68
  -8   1   6   11.03    1.50
  -7   1   6    1.65    0.73
  -6   1   6    4.28    0.88
  -5   1   6  118.33   10.41
  -4   1   6    0.03    0.49
  -3   1   6    7.87    1.15
  -2   1   6    1.02    0.34
  -1   1   6   41.98    2.54
   0   1   6   38.45    2.50
   1   1   6    0.14    0.30
   2   1   6   25.77    1.40
   3   1   6   38.42    2.03
   4   1   6   46.01    2.34
   5   1   6   18.84    1.19
   6   1   6    4.63    0.55
   7   1   6    2.26    0.45
   8   1   6    7.58    0.93
   9   1   6    1.49    0.64
  10   1   6   -0.13    0.52
  11   1   6    8.07    0.92
 -12   2   6    0.27    0.75
 -11   2   6    0.80    0.73
 -10   2   6    1.06    0.70
  -9   2   6    2.19    0.77
  -8   2   6    2.73    0.81
  -7   2   6    3.49    0.94
  -6   2   6   54.76    4.94
  -5   2   6   -0.12    0.65
  -4   2   6    3.78    0.75
  -3   2   6   22.65    1.59
  -2   2   6    0.47    0.30
  -1   2   6    0.62    0.30
   0   2   6    0.50    0.29
   1   2   6    7.59    0.70
   2   2   6    3.79    0.42
   3   2   6   28.81    1.59
   4   2   6   39.98    2.23
   5   2   6    0.05    0.36
   6   2   6   23.18    1.38
   7   2   6    2.72    0.55
   8   2   6    0.29    0.54
   9   2   6    3.12    0.70
  10   2   6    0.73    0.56
 -12   3   6    1.85    0.87
 -11   3   6    7.56    1.23
 -10   3   6   -0.33    0.66
  -9   3   6    5.73    1.12
  -8   3   6    0.72    0.71
  -7   3   6    1.18    0.72
  -6   3   6   12.73    1.64
  -5   3   6   24.06    2.70
  -4   3   6   37.95    3.48
  -3   3   6   14.01    1.02
  -2   3   6    9.13    0.75
  -1   3   6   22.66    1.52
   0   3   6   15.00    1.04
   1   3   6    0.11    0.28
   2   3   6    0.00    0.29
   3   3   6   13.81    0.97
   4   3   6    9.86    0.78
   5   3   6    9.05    0.76
   6   3   6   68.43    3.35
   7   3   6    0.80    0.59
   8   3   6   41.13    3.50
   9   3   6   19.17    2.25
 -13   4   6    1.78    0.77
 -11   4   6    3.93    0.90
 -10   4   6    1.14    0.72
  -9   4   6    3.89    0.95
  -8   4   6   21.65    2.50
  -7   4   6    9.88    1.34
  -6   4   6   38.03    3.82
  -5   4   6   37.63    3.98
  -4   4   6    0.19    0.60
  -3   4   6   -0.21    0.59
  -2   4   6    3.78    0.40
  -1   4   6   36.20    2.25
   0   4   6    0.03    0.24
   1   4   6  124.59    7.29
   2   4   6   54.85    3.48
   3   4   6    0.79    0.42
   4   4   6   25.60    1.49
   5   4   6    0.49    0.40
   6   4   6   13.00    0.88
   7   4   6   11.26    1.11
   8   4   6   22.08    1.62
   9   4   6    0.97    0.83
 -13   5   6   17.52    2.04
 -12   5   6    7.48    1.20
 -11   5   6    1.05    0.74
 -10   5   6    9.40    1.41
  -9   5   6    0.96    0.72
  -8   5   6   10.29    1.33
  -7   5   6    0.13    0.52
  -6   5   6   18.27    1.93
  -5   5   6   40.27    4.01
  -4   5   6  117.75   10.43
  -3   5   6   -0.12    0.59
  -2   5   6   24.10    2.50
  -1   5   6   39.41    3.75
   0   5   6   43.01    2.61
   1   5   6    4.13    0.77
   2   5   6    5.63    0.68
   3   5   6    1.65    0.44
   4   5   6    4.59    0.57
   5   5   6   11.60    0.83
   6   5   6    5.09    0.58
   7   5   6   25.19    1.76
   8   5   6   -0.02    0.81
 -13   6   6    0.34    0.75
 -12   6   6   -0.02    0.71
 -11   6   6    4.51    0.98
 -10   6   6   11.47    1.50
  -9   6   6   63.36    5.76
  -8   6   6   19.89    2.35
  -7   6   6    5.98    0.98
  -6   6   6   21.24    2.38
  -5   6   6    3.92    0.89
  -4   6   6   52.65    4.76
  -3   6   6   14.24    1.53
  -2   6   6   39.77    3.45
  -1   6   6   17.28    1.84
   0   6   6   23.37    1.49
   1   6   6    0.74    0.32
   2   6   6    1.31    0.49
   3   6   6    6.50    0.66
   4   6   6    1.53    0.45
   5   6   6    1.40    0.43
   6   6   6    0.02    0.60
   7   6   6   21.99    2.63
 -13   7   6   21.81    2.50
 -12   7   6   20.53    2.35
 -11   7   6   11.32    1.44
 -10   7   6   -0.50    0.67
  -9   7   6    0.92    0.72
  -8   7   6    0.99    0.72
  -7   7   6    2.61    0.84
  -6   7   6    0.84    0.55
  -5   7   6    4.79    0.96
  -4   7   6   -0.18    0.58
  -3   7   6    9.87    1.22
  -2   7   6    0.07    0.58
  -1   7   6    4.67    0.85
   0   7   6    4.12    0.82
   1   7   6   14.19    1.11
   2   7   6    1.56    0.44
   3   7   6    0.60    0.42
   4   7   6    3.50    0.53
   5   7   6    7.47    0.82
   6   7   6    0.74    0.95
 -13   8   6    0.23    0.75
 -12   8   6   19.53    2.19
 -11   8   6   38.89    3.32
 -10   8   6   -0.06    0.65
  -9   8   6    8.76    1.25
  -8   8   6    0.08    0.67
  -7   8   6   12.72    1.48
  -6   8   6    1.28    0.69
  -5   8   6    0.89    0.67
  -4   8   6   21.70    2.21
  -3   8   6    6.74    1.11
  -2   8   6   20.56    2.05
  -1   8   6    1.36    0.71
   0   8   6   -0.11    0.64
   1   8   6    2.07    0.55
   2   8   6    1.69    0.44
   3   8   6    8.10    0.72
   4   8   6   10.53    1.07
   5   8   6   19.04    2.28
 -13   9   6    0.45    0.76
 -12   9   6   20.85    2.12
 -11   9   6    4.12    0.92
 -10   9   6    2.58    0.82
  -9   9   6   -0.49    0.62
  -8   9   6    1.68    0.74
  -7   9   6    0.00    0.67
  -6   9   6    6.69    1.01
  -5   9   6    3.81    0.86
  -4   9   6    1.19    0.69
  -3   9   6   58.03    5.18
  -2   9   6    2.81    0.80
  -1   9   6    6.84    1.11
   0   9   6    0.08    0.60
   1   9   6    0.46    0.49
   2   9   6    2.90    0.58
   3   9   6    3.86    0.67
   4   9   6    1.54    0.52
 -12  10   6    0.25    0.71
 -11  10   6   -0.56    0.62
 -10  10   6    0.47    0.73
  -9  10   6    1.28    0.70
  -8  10   6    0.98    0.71
  -7  10   6    0.70    0.69
  -6  10   6    2.48    0.77
  -5  10   6    8.46    1.26
  -4  10   6   11.69    1.43
  -3  10   6    0.84    0.67
  -2  10   6   -0.15    0.60
  -1  10   6    0.72    0.66
   0  10   6    0.53    0.63
   1  10   6    2.81    0.79
   2  10   6   -0.64    0.51
 -12  11   6    7.88    1.23
 -11  11   6    6.52    1.17
 -10  11   6    0.51    0.76
  -9  11   6    2.22    0.78
  -8  11   6    6.33    1.13
  -7  11   6    2.19    0.80
  -6  11   6    0.50    0.67
  -5  11   6    3.41    0.87
  -4  11   6   10.35    1.40
  -3  11   6   40.43    3.55
  -2  11   6    2.39    0.81
  -1  11   6    0.15    0.64
   0  11   6    9.19    1.27
   1  11   6   14.17    1.24
 -11  12   6   11.50    1.56
 -10  12   6    0.95    0.72
  -9  12   6    2.62    0.86
  -8  12   6   12.14    1.56
  -7  12   6    4.93    0.95
  -6  12   6   -0.19    0.65
  -5  12   6   20.38    2.18
  -4  12   6   15.37    1.87
  -3  12   6   17.39    2.04
  -2  12   6    0.74    0.73
  -1  12   6    8.25    1.18
  -9  13   6    0.12    0.69
  -8  13   6   16.02    1.95
  -7  13   6    1.29    0.73
  -6  13   6   20.38    2.33
  -5  13   6    0.75    0.70
  -4  13   6    0.22    0.68
   6 -12   7    9.49    1.38
   2 -11   7    4.80    1.17
   3 -11   7    9.85    1.42
   4 -11   7    0.87    0.92
   5 -11   7   -1.15    0.82
   6 -11   7   -0.46    0.86
   7 -11   7   -0.18    0.78
   8 -11   7    3.43    1.02
   9 -11   7    5.09    1.20
   1 -10   7    0.34    0.81
   2 -10   7    1.75    0.91
   3 -10   7   22.04    2.55
   4 -10   7    6.59    1.23
   5 -10   7    3.53    0.96
   6 -10   7    0.77    0.87
   7 -10   7    8.01    1.41
   8 -10   7    4.45    0.82
   9 -10   7    0.62    0.63
  10 -10   7    0.15    0.60
  -1  -9   7   -0.01    0.79
   0  -9   7    8.02    1.24
   1  -9   7    4.67    1.04
   2  -9   7    4.40    1.05
   3  -9   7   11.06    1.45
   4  -9   7    0.01    0.80
   5  -9   7   11.66    1.66
   6  -9   7    3.38    0.68
   7  -9   7   -0.05    0.60
   8  -9   7   18.05    1.48
   9  -9   7    7.84    0.93
  10  -9   7    0.16    0.61
  11  -9   7    5.09    0.83
  -2  -8   7    4.25    1.03
  -1  -8   7   19.44    1.99
   0  -8   7   18.11    2.06
   1  -8   7    4.60    0.98
   2  -8   7    0.23    0.80
   3  -8   7    2.80    0.97
   4  -8   7    3.36    0.65
   5  -8   7   22.06    1.57
   6  -8   7   17.93    1.35
   7  -8   7    5.90    0.86
   8  -8   7   18.16    1.52
   9  -8   7    5.53    0.80
  10  -8   7    1.20    0.62
  11  -8   7    7.82    0.94
  -3  -7   7   11.10    1.41
  -2  -7   7    1.04    0.75
  -1  -7   7    4.24    1.03
   0  -7   7    0.87    0.77
   1  -7   7   21.66    2.39
   2  -7   7    0.33    0.50
   3  -7   7   14.17    1.13
   4  -7   7   11.05    1.00
   5  -7   7   16.69    1.31
   6  -7   7   21.21    1.57
   7  -7   7    0.42    0.57
   8  -7   7    4.83    0.72
   9  -7   7    4.78    0.73
  10  -7   7   22.61    1.79
  11  -7   7    0.59    0.62
  -1  -6   7   21.39    2.26
   0  -6   7    1.68    0.87
   1  -6   7    1.11    0.50
   2  -6   7    8.83    0.91
   3  -6   7   47.48    3.00
   4  -6   7    0.24    0.52
   5  -6   7    0.59    0.55
   6  -6   7    2.64    0.60
   7  -6   7   20.00    1.64
   8  -6   7    0.84    0.57
   9  -6   7    7.87    0.97
  10  -6   7    7.16    0.88
  11  -6   7   -0.23    0.55
  12  -6   7    9.00    1.42
  -1  -5   7    0.73    0.45
   0  -5   7    8.99    0.72
   1  -5   7    2.17    0.45
   2  -5   7   34.48    1.94
   3  -5   7    3.03    0.49
   4  -5   7    1.92    0.59
   5  -5   7    8.82    0.93
   6  -5   7    0.52    0.54
   7  -5   7    0.26    0.57
   8  -5   7    3.19    0.66
   9  -5   7    0.60    0.59
  10  -5   7    2.45    0.68
  11  -5   7    0.68    0.60
  -5  -4   7    0.32    0.78
  -4  -4   7    3.13    0.89
  -3  -4   7    6.49    1.22
  -2  -4   7    0.63    0.43
  -1  -4   7    2.60    0.54
   0  -4   7    9.99    0.93
   1  -4   7   31.83    1.81
   2  -4   7    0.44    0.38
   3  -4   7    0.15    0.38
   4  -4   7    8.56    0.74
   5  -4   7    2.61    0.47
   6  -4   7    9.27    0.94
   7  -4   7   13.08    1.11
   8  -4   7    3.17    0.69
   9  -4   7   12.50    1.18
  10  -4   7    0.54    0.59
  11  -4   7    1.05    0.60
  -7  -3   7   20.91    2.41
  -6  -3   7    9.50    1.34
  -5  -3   7    2.59    0.88
  -4  -3   7    9.72    1.39
  -3  -3   7   39.99    4.07
  -2  -3   7    3.49    0.77
  -1  -3   7    0.44    0.45
   0  -3   7    4.36    0.60
   1  -3   7   27.87    1.58
   2  -3   7    6.70    0.65
   3  -3   7    4.21    0.51
   4  -3   7   31.22    1.73
   5  -3   7   32.01    1.81
   6  -3   7   47.51    2.38
   7  -3   7   11.94    0.82
   8  -3   7   17.81    1.48
   9  -3   7    2.96    0.71
  10  -3   7    8.31    1.02
  11  -3   7    2.14    0.66
  -9  -2   7    4.10    1.03
  -8  -2   7    0.89    0.75
  -7  -2   7    3.71    0.94
  -6  -2   7    1.65    0.79
  -5  -2   7   -0.60    0.64
  -4  -2   7    5.63    1.14
  -3  -2   7   29.65    3.04
  -2  -2   7   -0.14    0.65
  -1  -2   7    3.92    0.98
   0  -2   7   17.80    1.34
   1  -2   7   -0.01    0.43
   2  -2   7   17.30    1.15
   3  -2   7   27.61    1.62
   4  -2   7    0.36    0.41
   5  -2   7    4.57    0.54
   6  -2   7   -0.05    0.41
   7  -2   7   17.61    1.08
   8  -2   7   15.92    1.33
   9  -2   7    0.01    0.59
  10  -2   7    3.65    0.79
  11  -2   7    7.03    0.91
  -9  -1   7   -0.02    0.70
  -8  -1   7    4.60    0.93
  -7  -1   7    1.84    0.86
  -6  -1   7   21.22    2.32
  -5  -1   7    0.04    0.67
  -4  -1   7    1.68    0.77
  -3  -1   7   27.01    2.93
  -2  -1   7   26.04    2.74
  -1  -1   7   -0.65    0.54
   0  -1   7    9.68    1.45
   1  -1   7   10.10    0.98
   2  -1   7    0.18    0.38
   3  -1   7    6.73    0.65
   4  -1   7    0.30    0.40
   5  -1   7    2.63    0.47
   6  -1   7    0.87    0.43
   7  -1   7   22.80    1.31
   8  -1   7    5.24    0.82
   9  -1   7   16.28    1.45
  10  -1   7   -0.37    0.57
 -10   0   7   -0.46    0.64
  -9   0   7    6.45    1.12
  -8   0   7   17.29    2.03
  -7   0   7   -0.28    0.70
  -6   0   7    3.10    0.82
  -5   0   7    7.06    1.20
  -4   0   7    8.62    1.20
  -3   0   7    2.72    0.85
  -2   0   7   18.54    1.99
  -1   0   7   12.39    1.47
   0   0   7    0.22    0.62
   1   0   7   11.91    1.47
   2   0   7   19.03    1.16
   3   0   7    3.15    0.53
   4   0   7   12.04    0.86
   5   0   7   10.77    0.80
   6   0   7    3.30    0.52
   7   0   7   -0.66    0.55
   8   0   7   18.76    1.55
   9   0   7    7.73    0.96
  10   0   7    0.23    0.60
 -10   1   7   -0.50    0.69
  -9   1   7   15.85    1.92
  -8   1   7    6.50    1.09
  -7   1   7   18.84    2.15
  -6   1   7    0.46    0.71
  -5   1   7    2.61    0.84
  -4   1   7   -0.80    0.62
  -3   1   7    8.24    1.18
  -2   1   7   -0.30    0.61
  -1   1   7   13.74    1.53
   0   1   7   11.85    1.42
   1   1   7   -0.37    0.56
   2   1   7   28.39    1.62
   3   1   7   34.23    1.86
   4   1   7    1.60    0.47
   5   1   7    0.30    0.41
   6   1   7   25.44    1.39
   7   1   7    5.42    0.84
   8   1   7    6.17    0.84
   9   1   7   -0.34    0.55
 -11   2   7    5.70    1.12
 -10   2   7    5.59    1.01
  -9   2   7   -0.97    0.66
  -8   2   7   14.07    1.76
  -7   2   7   14.63    1.78
  -6   2   7   -0.02    0.67
  -5   2   7    2.36    0.84
  -4   2   7    1.25    0.74
  -3   2   7   27.23    2.75
  -2   2   7   18.55    1.96
  -1   2   7    0.34    0.61
   0   2   7   17.44    1.93
   1   2   7    7.08    1.05
   2   2   7   -0.02    0.39
   3   2   7   35.62    1.96
   4   2   7    9.75    0.79
   5   2   7    0.31    0.42
   6   2   7    0.60    0.44
   7   2   7    4.90    0.81
   8   2   7    2.22    0.69
   9   2   7    6.34    0.88
 -11   3   7    1.96    0.83
 -10   3   7    7.67    1.28
  -9   3   7    2.84    0.84
  -8   3   7   16.87    2.14
  -7   3   7    8.26    1.35
  -6   3   7   44.90    4.23
  -5   3   7   32.45    3.34
  -4   3   7   29.75    3.12
  -3   3   7    1.92    0.82
  -2   3   7    5.18    1.02
  -1   3   7   27.51    2.73
   0   3   7    3.64    0.82
   1   3   7   -0.57    0.52
   2   3   7    3.32    0.50
   3   3   7   48.16    2.47
   4   3   7   12.19    0.93
   5   3   7    2.11    0.48
   6   3   7   10.23    1.08
   7   3   7   27.33    1.88
   8   3   7    9.34    1.05
 -11   4   7   -0.46    0.70
 -10   4   7   -0.48    0.67
  -9   4   7   12.65    1.61
  -8   4   7    4.12    0.95
  -7   4   7    8.62    1.48
  -6   4   7    7.17    1.23
  -5   4   7    1.76    0.78
  -4   4   7    6.73    1.28
  -3   4   7   -0.68    0.60
  -2   4   7    0.00    0.59
  -1   4   7   31.13    2.92
   0   4   7    9.53    1.22
   1   4   7    2.16    0.75
   2   4   7    0.18    0.40
   3   4   7    9.84    0.81
   4   4   7    3.17    0.53
   5   4   7    0.92    0.44
   6   4   7    8.59    0.98
   7   4   7    1.11    0.63
 -11   5   7   -0.39    0.79
 -10   5   7    3.34    0.93
  -9   5   7    1.26    0.78
  -8   5   7    2.97    0.86
  -7   5   7   -0.44    0.60
  -6   5   7    1.18    0.72
  -5   5   7    9.50    1.27
  -4   5   7    3.80    0.82
  -3   5   7    5.56    0.91
  -2   5   7   33.26    3.10
  -1   5   7    1.65    0.69
   0   5   7   10.20    1.24
   1   5   7    0.45    0.62
   2   5   7   15.20    1.06
   3   5   7   20.79    1.29
   4   5   7   12.94    0.97
   5   5   7    2.76    0.54
   6   5   7   -0.50    0.60
 -12   6   7    5.51    1.20
 -11   6   7   -0.25    0.69
 -10   6   7    5.10    1.13
  -9   6   7    9.38    1.37
  -8   6   7   -0.12    0.71
  -7   6   7   17.00    2.26
  -6   6   7    1.39    0.74
  -5   6   7    0.83    0.55
  -4   6   7   -0.06    0.52
  -3   6   7   44.14    4.07
  -2   6   7    6.90    1.14
  -1   6   7    0.92    0.66
   0   6   7    1.37    0.68
   1   6   7   19.84    1.53
   2   6   7   14.46    1.05
   3   6   7    2.17    0.51
   4   6   7    0.10    0.45
   5   6   7   -0.17    0.58
 -11   7   7    0.40    0.75
 -10   7   7   22.17    2.49
  -9   7   7    3.48    0.90
  -8   7   7    4.62    0.97
  -7   7   7    0.59    0.70
  -6   7   7   15.69    2.13
  -5   7   7   12.53    1.74
  -4   7   7    7.40    1.23
  -3   7   7    8.77    1.33
  -2   7   7   -0.30    0.58
  -1   7   7   22.51    2.20
   0   7   7   -0.24    0.58
   1   7   7    6.74    0.80
   2   7   7    0.71    0.43
   3   7   7   11.29    0.85
   4   7   7    0.08    0.45
 -11   8   7    6.33    1.23
 -10   8   7    1.22    0.76
  -9   8   7    2.92    0.93
  -8   8   7   17.67    2.02
  -7   8   7    6.14    1.04
  -6   8   7   14.35    1.67
  -5   8   7   17.45    1.95
  -4   8   7    2.19    0.76
  -3   8   7    3.15    0.81
  -2   8   7    1.00    0.66
  -1   8   7    4.45    0.85
   0   8   7   20.29    1.97
   1   8   7   16.77    1.38
   2   8   7    4.96    0.60
   3   8   7    2.58    0.60
 -11   9   7    4.88    1.07
 -10   9   7   -0.31    0.68
  -9   9   7    6.38    1.12
  -8   9   7   15.00    1.87
  -7   9   7    0.34    0.66
  -6   9   7    3.15    0.83
  -5   9   7   10.24    1.41
  -4   9   7    1.00    0.68
  -3   9   7    8.57    1.26
  -2   9   7    4.19    0.91
  -1   9   7    3.71    0.87
   0   9   7    6.14    0.80
   1   9   7    0.73    0.54
   2   9   7    8.00    0.84
 -10  10   7    0.07    0.68
  -9  10   7   -1.71    0.56
  -8  10   7    2.65    0.89
  -7  10   7    8.69    1.29
  -6  10   7    0.50    0.67
  -5  10   7    3.39    0.85
  -4  10   7    4.47    0.97
  -2  10   7    0.80    0.69
  -1  10   7    1.35    0.72
   0  10   7    0.08    0.59
  -9  11   7    6.47    1.16
  -8  11   7    1.41    0.73
  -7  11   7   -0.73    0.61
  -6  11   7    0.40    0.64
  -5  11   7   -0.20    0.63
  -4  11   7   -0.08    0.69
  -3  11   7    8.56    1.24
  -2  11   7    5.35    1.03
  -6  12   7    6.67    1.15
   4 -10   8    1.81    0.88
   5 -10   8    3.04    0.99
   6 -10   8    0.88    0.86
   1  -9   8    0.80    0.91
   2  -9   8    3.74    0.98
   3  -9   8   12.01    1.65
   4  -9   8    1.54    0.92
   5  -9   8    2.93    0.97
   6  -9   8    2.42    0.94
   7  -9   8    0.47    0.92
   8  -9   8    0.53    0.62
  -1  -8   8    0.36    0.85
   0  -8   8    3.06    1.03
   1  -8   8   -0.55    0.83
   2  -8   8    1.34    0.85
   3  -8   8    0.57    0.88
   4  -8   8    0.29    0.80
   5  -8   8   13.61    1.77
   6  -8   8    1.77    0.65
   7  -8   8    0.74    0.62
   8  -8   8    3.39    0.74
   9  -8   8    1.35    0.65
  -2  -7   8    0.78    0.88
  -1  -7   8    1.07    0.84
   0  -7   8   10.47    1.52
   1  -7   8    0.10    0.78
   2  -7   8   -0.06    0.77
   3  -7   8    2.32    0.98
   4  -7   8    1.55    0.62
   5  -7   8    5.08    0.78
   6  -7   8    0.22    0.55
   7  -7   8   11.90    1.17
   8  -7   8    0.32    0.57
   9  -7   8    3.54    0.72
  -2  -6   8    1.03    0.78
  -1  -6   8    1.38    0.87
   0  -6   8   -0.50    0.71
   1  -6   8   10.81    1.55
   2  -6   8   10.59    0.99
   3  -6   8    1.40    0.56
   4  -6   8    8.56    0.93
   5  -6   8   12.22    1.14
   6  -6   8    0.19    0.57
   7  -6   8    1.05    0.64
   8  -6   8    2.33    0.69
   9  -6   8   13.62    1.24
  10  -6   8    1.32    0.64
  -1  -5   8    9.68    1.08
   0  -5   8   14.65    1.01
   1  -5   8    1.31    0.44
   2  -5   8   -0.11    0.39
   3  -5   8    1.83    0.47
   4  -5   8    8.27    0.93
   5  -5   8   11.95    1.20
   6  -5   8    9.38    1.03
   7  -5   8    1.22    0.63
   8  -5   8    0.32    0.59
   9  -5   8    1.02    0.62
  10  -5   8    2.43    0.72
  -5  -4   8   -0.61    0.76
  -4  -4   8    0.28    0.58
  -3  -4   8    0.57    0.70
  -2  -4   8    6.83    1.21
  -1  -4   8    9.20    0.91
   0  -4   8    4.88    0.56
   1  -4   8    0.09    0.40
   2  -4   8    6.20    0.64
   3  -4   8    0.27    0.42
   4  -4   8    4.44    0.58
   5  -4   8    0.70    0.46
   6  -4   8    7.91    0.96
   7  -4   8    5.04    0.78
   8  -4   8    0.49    0.62
   9  -4   8    1.56    0.67
  10  -4   8    2.27    0.70
  -6  -3   8   10.84    1.54
  -5  -3   8    0.35    0.74
  -4  -3   8    4.68    1.00
  -3  -3   8    0.49    0.69
  -2  -3   8    2.25    0.54
  -1  -3   8   -0.59    0.44
   0  -3   8    2.49    0.56
   1  -3   8   42.15    2.33
   2  -3   8    3.12    0.50
   3  -3   8    2.56    0.49
   4  -3   8    0.45    0.43
   5  -3   8    0.55    0.45
   6  -3   8    1.53    0.49
   7  -3   8    0.71    0.60
   8  -3   8   16.07    1.36
   9  -3   8    1.92    0.69
  -7  -2   8    3.12    0.94
  -6  -2   8    0.73    0.75
  -5  -2   8    1.40    0.81
  -4  -2   8    8.81    1.31
  -3  -2   8    0.49    0.69
  -2  -2   8    5.28    1.05
  -1  -2   8    1.43    0.75
   0  -2   8    0.15    0.47
   1  -2   8   -0.16    0.40
   2  -2   8    0.43    0.41
   3  -2   8   41.79    2.29
   4  -2   8    6.23    0.66
   5  -2   8    1.64    0.48
   6  -2   8    8.60    0.76
   7  -2   8    3.11    0.72
   8  -2   8    0.95    0.68
   9  -2   8    1.18    0.64
  -8  -1   8    0.40    0.76
  -7  -1   8   -0.32    0.72
  -6  -1   8    0.13    0.73
  -5  -1   8    6.72    1.25
  -4  -1   8    1.47    0.77
  -3  -1   8    0.54    0.70
  -2  -1   8   39.25    3.90
  -1  -1   8   -0.50    0.63
   0  -1   8   32.53    2.30
   1  -1   8   30.36    1.81
   2  -1   8    0.33    0.42
   3  -1   8    2.64    0.52
   4  -1   8   -0.07    0.43
   5  -1   8    9.78    0.82
   6  -1   8   12.51    0.93
   7  -1   8    0.57    0.61
   8  -1   8    0.10    0.61
   9  -1   8    1.02    0.64
  -8   0   8    3.00    0.91
  -7   0   8   10.22    1.53
  -6   0   8    1.17    0.78
  -5   0   8   14.80    1.69
  -4   0   8    3.25    0.89
  -3   0   8    2.59    0.82
  -2   0   8    1.07    0.72
  -1   0   8   31.43    3.10
   0   0   8    5.38    1.02
   1   0   8   33.14    2.31
   2   0   8    0.08    0.43
   3   0   8    2.21    0.51
   4   0   8    3.45    0.57
   5   0   8   16.56    1.08
   6   0   8    0.23    0.46
   7   0   8   11.96    1.21
   8   0   8    4.18    0.80
  -9   1   8    0.51    0.75
  -8   1   8    0.34    0.73
  -7   1   8    0.66    0.75
  -6   1   8   11.19    1.49
  -5   1   8    7.26    1.23
  -4   1   8    0.93    0.76
  -3   1   8    3.66    0.89
  -2   1   8    0.97    0.72
  -1   1   8   33.51    3.25
   0   1   8   31.18    3.08
   1   1   8    0.78    0.51
   2   1   8   43.38    2.35
   3   1   8    0.21    0.44
   4   1   8   -0.03    0.43
   5   1   8   11.17    0.88
   6   1   8    0.83    0.64
   7   1   8    2.03    0.69
   8   1   8   -0.94    0.60
  -9   2   8    1.68    0.79
  -8   2   8    1.37    0.78
  -7   2   8    3.50    0.96
  -6   2   8    6.93    1.20
  -5   2   8    2.62    0.84
  -4   2   8    6.86    1.12
  -3   2   8   39.76    4.01
  -2   2   8    0.06    0.66
  -1   2   8   -0.57    0.61
   0   2   8    1.12    0.74
   1   2   8    1.33    0.70
   2   2   8    6.11    0.66
   3   2   8    0.33    0.45
   4   2   8   10.63    0.85
   5   2   8    1.01    0.47
   6   2   8    1.83    0.70
   7   2   8    4.53    0.82
  -9   3   8    1.85    0.83
  -8   3   8   13.04    1.67
  -7   3   8    0.31    0.73
  -6   3   8    1.04    0.77
  -5   3   8   -0.04    0.67
  -4   3   8    0.24    0.68
  -3   3   8    2.98    0.85
  -2   3   8    1.36    0.77
  -1   3   8   42.08    3.90
   0   3   8    3.07    0.77
   1   3   8    0.51    0.67
   2   3   8    1.60    0.49
   3   3   8    1.13    0.45
   4   3   8    5.73    0.62
   5   3   8    1.32    0.49
   6   3   8   11.72    1.23
 -10   4   8    1.43    0.82
  -9   4   8    1.82    0.82
  -8   4   8    1.07    0.81
  -7   4   8    2.85    0.90
  -6   4   8    8.28    1.33
  -5   4   8    0.06    0.69
  -4   4   8    3.22    0.86
  -3   4   8   -0.17    0.68
  -2   4   8    7.04    1.07
  -1   4   8    0.08    0.62
   0   4   8    3.40    0.84
   1   4   8    8.51    0.91
   2   4   8    7.86    0.74
   3   4   8    0.27    0.44
   4   4   8    0.36    0.45
   5   4   8    0.55    0.63
   6   4   8    1.14    0.69
 -10   5   8    2.13    0.87
  -9   5   8    1.17    0.79
  -8   5   8    0.22    0.72
  -7   5   8    0.90    0.72
  -6   5   8   12.07    1.47
  -5   5   8   12.51    1.70
  -4   5   8    7.69    1.25
  -3   5   8    2.18    0.76
  -2   5   8   -0.84    0.55
  -1   5   8    0.59    0.65
   0   5   8   14.80    1.61
   1   5   8   10.97    1.04
   2   5   8    4.16    0.58
   3   5   8   13.84    1.00
   4   5   8    2.89    0.53
   5   5   8    2.34    0.73
 -10   6   8    0.99    0.79
  -9   6   8   12.83    1.63
  -8   6   8   -0.01    0.74
  -7   6   8   -0.19    0.67
  -6   6   8   -0.41    0.52
  -5   6   8   11.28    1.49
  -4   6   8    8.25    1.22
  -3   6   8    0.91    0.70
  -2   6   8    9.00    1.25
  -1   6   8    9.62    1.27
   0   6   8   -0.06    0.57
   1   6   8   -0.37    0.48
   2   6   8    1.18    0.47
   3   6   8    0.72    0.46
   4   6   8    2.03    0.54
  -9   7   8    2.77    0.89
  -8   7   8   -0.86    0.66
  -7   7   8   10.28    1.46
  -6   7   8    1.64    0.77
  -5   7   8    2.78    0.84
  -4   7   8    0.90    0.67
  -3   7   8    4.48    0.92
  -2   7   8    1.41    0.71
  -1   7   8   -0.68    0.59
   0   7   8   13.07    1.55
   1   7   8    0.13    0.54
   2   7   8    0.99    0.46
  -9   8   8   -0.54    0.67
  -8   8   8    3.54    0.93
  -7   8   8    0.93    0.71
  -6   8   8    1.01    0.74
  -5   8   8   12.10    1.68
  -4   8   8    0.16    0.71
  -3   8   8   -0.13    0.63
  -2   8   8    1.93    0.78
  -1   8   8    0.77    0.73
   0   8   8    3.60    0.66
   1   8   8    0.82    0.43
  -8   9   8    0.05    0.69
  -7   9   8    2.69    0.83
  -6   9   8    0.84    0.74
  -5   9   8    1.22    0.77
  -4   9   8    0.06    0.65
  -3   9   8   11.31    1.51
  -2   9   8    2.69    0.82
  -1   9   8    0.41    0.64
  -6  10   8    1.18    0.74
  -5  10   8    2.24    0.81
  -4  10   8    0.43    0.65
   2  -7   9   -0.43    0.79
   3  -7   9    0.28    0.92
   4  -7   9    0.61    0.87
   5  -7   9    0.58    0.84
   0  -6   9   -0.27    0.76
   1  -6   9    1.51    0.86
   2  -6   9    1.62    0.91
   3  -6   9   13.92    1.86
   4  -6   9    3.21    0.69
   5  -6   9    2.50    0.66
   6  -6   9    0.42    0.59
  -2  -5   9    0.93    0.79
  -1  -5   9    1.65    0.90
   0  -5   9   14.17    1.37
   1  -5   9    3.75    0.68
   2  -5   9    6.84    0.84
   3  -5   9   14.60    1.24
   4  -5   9    2.03    0.65
   5  -5   9   18.40    1.51
   6  -5   9    3.00    0.69
   7  -5   9    1.18    0.65
  -3  -4   9    0.82    0.77
  -2  -4   9    1.36    0.81
  -1  -4   9    1.34    0.58
   0  -4   9    8.78    0.76
   1  -4   9    1.33    0.46
   2  -4   9    1.71    0.49
   3  -4   9    7.50    0.71
   4  -4   9    9.72    0.81
   5  -4   9    4.35    0.60
   6  -4   9    2.33    0.69
   7  -4   9    0.46    0.59
  -4  -3   9   -0.95    0.70
  -3  -3   9   14.21    1.80
  -2  -3   9   14.38    1.69
  -1  -3   9    6.42    0.81
   0  -3   9    5.23    0.63
   1  -3   9   -0.90    0.42
   2  -3   9    7.37    0.72
   3  -3   9    5.21    0.64
   4  -3   9    0.44    0.46
   5  -3   9    6.92    0.71
   6  -3   9   13.84    1.33
   7  -3   9    1.20    0.64
  -5  -2   9   -0.62    0.67
  -4  -2   9    1.82    0.83
  -3  -2   9    6.46    1.17
  -2  -2   9    1.77    0.59
  -1  -2   9    7.85    0.87
   0  -2   9    0.08    0.42
   1  -2   9   -0.16    0.42
   2  -2   9    0.32    0.44
   3  -2   9   -0.60    0.41
   4  -2   9    1.99    0.50
   5  -2   9   13.02    1.00
   6  -2   9    2.66    0.72
   7  -2   9    0.05    0.61
  -5  -1   9    2.04    0.86
  -4  -1   9    2.80    0.91
  -3  -1   9    1.18    0.77
  -2  -1   9    0.47    0.71
  -1  -1   9   -0.11    0.50
   0  -1   9    0.54    0.52
   1  -1   9    0.36    0.41
   2  -1   9    0.02    0.41
   3  -1   9    8.45    0.75
   4  -1   9    6.86    0.72
   5  -1   9    2.26    0.53
   6  -1   9    1.70    0.68
  -6   0   9   -0.34    0.69
  -5   0   9   15.56    2.00
  -4   0   9    8.14    1.31
  -3   0   9    4.81    1.06
  -2   0   9   -0.15    0.67
  -1   0   9    0.21    0.68
   0   0   9    0.62    0.54
   1   0   9   -0.72    0.40
   2   0   9    0.28    0.44
   3   0   9    5.95    0.66
   4   0   9    8.15    0.77
   5   0   9   19.08    1.23
   6   0   9    1.00    0.64
  -6   1   9    1.42    0.79
  -5   1   9    1.13    0.79
  -4   1   9    5.17    1.12
  -3   1   9    7.79    1.21
  -2   1   9    1.19    0.79
  -1   1   9    0.70    0.70
   0   1   9    0.68    0.52
   1   1   9    0.33    0.43
   2   1   9    0.20    0.44
   3   1   9    1.04    0.49
   4   1   9    3.37    0.59
   5   1   9    2.87    0.72
  -7   2   9    1.83    0.76
  -6   2   9    2.56    0.88
  -5   2   9   12.91    1.65
  -4   2   9    1.46    0.77
  -3   2   9   -0.28    0.69
  -2   2   9    0.35    0.72
  -1   2   9    0.45    0.72
   0   2   9   -0.64    0.63
   1   2   9    7.19    0.71
   2   2   9    3.38    0.55
   3   2   9    6.77    0.71
   4   2   9    2.62    0.56
   5   2   9    1.18    0.68
  -7   3   9    1.16    0.79
  -6   3   9   13.16    1.76
  -5   3   9    6.46    1.14
  -4   3   9    0.92    0.76
  -3   3   9    5.35    1.06
  -2   3   9    6.66    1.17
  -1   3   9    2.28    0.81
   0   3   9    6.18    1.05
   1   3   9    7.70    0.70
   2   3   9   12.28    0.97
   3   3   9   15.32    1.08
   4   3   9    1.31    0.51
  -7   4   9    0.62    0.78
  -6   4   9    1.11    0.79
  -5   4   9    3.07    0.89
  -4   4   9    8.90    1.29
  -3   4   9    7.76    1.16
  -2   4   9    1.86    0.83
  -1   4   9    1.85    0.75
   0   4   9    8.85    1.27
   1   4   9    0.71    0.44
   2   4   9    3.53    0.55
   3   4   9    0.69    0.47
  -7   5   9    0.46    0.71
  -6   5   9    2.84    0.87
  -5   5   9   17.71    1.98
  -4   5   9    1.34    0.79
  -3   5   9   14.40    1.67
  -2   5   9    5.11    1.07
  -1   5   9    2.96    0.84
   0   5   9   17.07    1.95
   1   5   9    1.36    0.48
   2   5   9    0.62    0.45
  -6   6   9    0.37    0.72
  -5   6   9    2.56    0.83
  -4   6   9    3.05    0.88
  -3   6   9   14.45    1.76
  -2   6   9    3.38    0.86
  -1   6   9    1.35    0.75
   0   6   9    0.21    0.47
  -5   7   9   -0.54    0.63
  -4   7   9    1.31    0.74
  -3   7   9    0.97    0.69
  -2   7   9    0.81    0.67
   0   0  10   82.93    7.19
   0   0   0    0.00    0.00
;
_shelx_hkl_checksum               87267
_olex2_submission_special_instructions 'No special instructions were received'
